
Note: No compatibility mode selected!


Circuit: Triangle Wave Generator

Doing analysis at TEMP = 27.000000 and TNOM = 27.000000

Using SPARSE 1.3 as Direct Linear Solver

Initial Transient Solution
--------------------------

Node                                   Voltage
----                                   -------
vcc                                         15
vee                                        -15
n1                                         0.1
n2                                         0.1
out1                              -5.55112e-13
n3                                -5.55112e-08
out2                                         0
e.xu2.e1#branch                   3.13157e+232
e.xu1.e1#branch                   3.12926e+227
vee#branch                        1.45913e+238
vcc#branch                       -1.45913e+238


No. of Data Rows : 5015

Warning: command 'plot' is not available during batch simulation, ignored!
    You may use Gnuplot instead.

                            Triangle Wave Generator
                            Transient Analysis  Wed May 20 18:57:00  2026
--------------------------------------------------------------------------------
Index   time            v(out1)         v(out2)         v(n2)           
--------------------------------------------------------------------------------
0	0.000000e+00	-5.55112e-13	0.000000e+00	1.000000e-01	
1	1.000000e-07	8.082424e-13	1.363218e-07	9.998000e-02	
2	2.000000e-07	-1.62981e-13	3.919553e-08	9.996001e-02	
3	4.000000e-07	-7.98916e-13	-2.43995e-08	9.992004e-02	
4	8.000000e-07	6.292744e-13	1.184008e-07	9.984013e-02	
5	1.600000e-06	1.412204e-13	6.952019e-08	9.968052e-02	
6	3.200000e-06	-6.28386e-13	-7.49010e-09	9.936205e-02	
7	6.400000e-06	-9.94760e-14	4.534037e-08	9.872816e-02	
8	1.280000e-05	6.665779e-13	1.214121e-07	9.747247e-02	
9	2.280000e-05	-3.81473e-13	1.592043e-08	9.554233e-02	
10	3.280000e-05	-8.83738e-13	-3.42146e-08	9.365040e-02	
11	4.280000e-05	8.797407e-13	1.415963e-07	9.179594e-02	
12	5.280000e-05	4.982681e-13	1.022299e-07	8.997819e-02	
13	6.280000e-05	-8.65974e-14	4.301715e-08	8.819645e-02	
14	7.280000e-05	-3.20188e-13	1.934624e-08	8.644998e-02	
15	8.280000e-05	3.028688e-13	8.114948e-08	8.473810e-02	
16	9.280000e-05	-2.68230e-13	2.351628e-08	8.306012e-02	
17	1.028000e-04	2.211564e-13	7.197744e-08	8.141537e-02	
18	1.128000e-04	-1.15907e-13	3.772257e-08	7.980318e-02	
19	1.228000e-04	-3.19744e-14	4.569875e-08	7.822292e-02	
20	1.328000e-04	-9.76996e-15	4.745343e-08	7.667395e-02	
21	1.428000e-04	1.101341e-13	5.891202e-08	7.515565e-02	
22	1.528000e-04	2.380318e-13	7.105197e-08	7.366742e-02	
23	1.628000e-04	-2.92655e-13	1.754034e-08	7.220866e-02	
24	1.728000e-04	2.642331e-13	7.277754e-08	7.077879e-02	
25	1.828000e-04	-2.27818e-13	2.309310e-08	6.937723e-02	
26	1.928000e-04	2.300382e-13	6.842113e-08	6.800342e-02	
27	2.028000e-04	-1.86517e-14	4.299505e-08	6.665682e-02	
28	2.128000e-04	-8.03801e-14	3.642511e-08	6.533688e-02	
29	2.228000e-04	-4.07230e-13	3.540319e-09	6.404308e-02	
30	2.328000e-04	1.803002e-13	6.196579e-08	6.277490e-02	
31	2.428000e-04	1.154632e-14	4.455778e-08	6.153184e-02	
32	2.528000e-04	3.081979e-13	7.363199e-08	6.031338e-02	
33	2.628000e-04	1.665335e-13	5.880337e-08	5.911906e-02	
34	2.728000e-04	1.241229e-13	5.399831e-08	5.794838e-02	
35	2.828000e-04	-1.35003e-13	2.767733e-08	5.680089e-02	
36	2.928000e-04	1.405542e-13	5.482057e-08	5.567612e-02	
37	3.028000e-04	7.704948e-14	4.795621e-08	5.457362e-02	
38	3.128000e-04	2.753353e-13	6.720897e-08	5.349296e-02	
39	3.228000e-04	4.509726e-13	8.401657e-08	5.243369e-02	
40	3.328000e-04	-3.72147e-13	1.278162e-09	5.139540e-02	
41	3.428000e-04	-1.20570e-13	2.629794e-08	5.037767e-02	
42	3.528000e-04	3.392842e-13	7.179292e-08	4.938009e-02	
43	3.628000e-04	1.709743e-14	3.902018e-08	4.840227e-02	
44	3.728000e-04	2.766676e-13	6.445980e-08	4.744381e-02	
45	3.828000e-04	4.019007e-13	7.627942e-08	4.650433e-02	
46	3.928000e-04	-8.19345e-14	2.737761e-08	4.558345e-02	
47	4.028000e-04	3.521627e-13	7.029895e-08	4.468081e-02	
48	4.128000e-04	-3.21743e-13	2.544195e-09	4.379604e-02	
49	4.228000e-04	-2.59792e-13	8.683103e-09	4.292879e-02	
50	4.328000e-04	3.659295e-13	7.085757e-08	4.207871e-02	
51	4.428000e-04	-1.00364e-13	2.375514e-08	4.124547e-02	
52	4.528000e-04	6.838974e-14	4.031020e-08	4.042873e-02	
53	4.628000e-04	2.176037e-14	3.526937e-08	3.962816e-02	
54	4.728000e-04	-1.24789e-13	2.033639e-08	3.884345e-02	

Index   time            v(out1)         v(out2)         v(n2)           
--------------------------------------------------------------------------------
55	4.828000e-04	4.107825e-14	3.663825e-08	3.807427e-02	
56	4.928000e-04	-1.61204e-13	1.614607e-08	3.732032e-02	
57	5.028000e-04	1.112443e-13	4.309474e-08	3.658131e-02	
58	5.128000e-04	1.454392e-13	4.606841e-08	3.585692e-02	
59	5.228000e-04	9.525714e-14	4.061677e-08	3.514689e-02	
60	5.328000e-04	-5.66214e-14	2.510034e-08	3.445091e-02	
61	5.428000e-04	-3.55271e-15	3.013105e-08	3.376871e-02	
62	5.528000e-04	1.625367e-13	4.635754e-08	3.310002e-02	
63	5.628000e-04	-2.03837e-13	9.441187e-09	3.244458e-02	
64	5.728000e-04	-1.37890e-13	1.590916e-08	3.180211e-02	
65	5.828000e-04	-2.14717e-13	8.106339e-09	3.117237e-02	
66	5.928000e-04	1.716405e-13	4.646922e-08	3.055509e-02	
67	6.028000e-04	1.783018e-13	4.666966e-08	2.995004e-02	
68	6.128000e-04	1.434408e-13	4.273653e-08	2.935697e-02	
69	6.228000e-04	-1.54432e-13	1.267220e-08	2.877564e-02	
70	6.328000e-04	-2.25708e-13	5.453941e-09	2.820583e-02	
71	6.428000e-04	-1.66644e-13	1.127667e-08	2.764730e-02	
72	6.528000e-04	8.426593e-14	3.613068e-08	2.709983e-02	
73	6.628000e-04	1.463274e-13	4.194644e-08	2.656320e-02	
74	6.728000e-04	2.164935e-13	4.851076e-08	2.603719e-02	
75	6.828000e-04	-6.36158e-14	2.015650e-08	2.552161e-02	
76	6.928000e-04	-2.23266e-13	4.070358e-09	2.501623e-02	
77	7.028000e-04	1.958433e-13	4.573226e-08	2.452086e-02	
78	7.128000e-04	2.096101e-13	4.664704e-08	2.403529e-02	
79	7.228000e-04	-1.21014e-13	1.328494e-08	2.355935e-02	
80	7.328000e-04	-1.80522e-13	7.231564e-09	2.309283e-02	
81	7.428000e-04	1.191269e-13	3.697545e-08	2.263554e-02	
82	7.528000e-04	7.593925e-14	3.231025e-08	2.218731e-02	
83	7.628000e-04	-1.76525e-13	6.867890e-09	2.174796e-02	
84	7.728000e-04	9.181544e-14	3.350014e-08	2.131731e-02	
85	7.828000e-04	-6.08402e-14	1.797719e-08	2.089518e-02	
86	7.928000e-04	1.908473e-13	4.284185e-08	2.048142e-02	
87	8.028000e-04	-8.73746e-14	1.473179e-08	2.007585e-02	
88	8.128000e-04	9.336976e-14	3.256971e-08	1.967830e-02	
89	8.228000e-04	-4.39648e-14	1.858050e-08	1.928863e-02	
90	8.328000e-04	-4.24105e-14	1.855028e-08	1.890668e-02	
91	8.428000e-04	1.085798e-13	3.338962e-08	1.853229e-02	
92	8.528000e-04	3.552714e-14	2.578846e-08	1.816532e-02	
93	8.628000e-04	7.316370e-14	2.927679e-08	1.780561e-02	
94	8.728000e-04	-4.27436e-14	1.745241e-08	1.745302e-02	
95	8.828000e-04	6.106227e-14	2.760770e-08	1.710742e-02	
96	8.928000e-04	-2.67564e-14	1.859482e-08	1.676865e-02	
97	9.028000e-04	1.598721e-14	2.266289e-08	1.643660e-02	
98	9.128000e-04	-2.89768e-14	1.796336e-08	1.611112e-02	
99	9.228000e-04	3.885781e-14	2.453433e-08	1.579209e-02	
100	9.328000e-04	-9.37583e-14	1.109457e-08	1.547938e-02	
101	9.428000e-04	1.809664e-14	2.211403e-08	1.517286e-02	
102	9.528000e-04	9.470202e-14	2.951641e-08	1.487240e-02	
103	9.628000e-04	-6.99441e-15	1.910367e-08	1.457790e-02	
104	9.728000e-04	6.084022e-14	2.566330e-08	1.428923e-02	
105	9.828000e-04	4.263256e-14	2.359623e-08	1.400627e-02	
106	9.928000e-04	-1.48215e-14	1.764463e-08	1.372892e-02	
107	1.002800e-03	1.064704e-13	2.953790e-08	1.345706e-02	
108	1.012800e-03	6.233902e-14	2.485281e-08	1.319059e-02	
109	1.022800e-03	5.223599e-14	2.360024e-08	1.292939e-02	
110	1.032800e-03	-1.06026e-14	1.711281e-08	1.267336e-02	
111	1.042800e-03	-6.40044e-14	1.162893e-08	1.242240e-02	
112	1.052800e-03	-6.54476e-14	1.136961e-08	1.217641e-02	

Index   time            v(out1)         v(out2)         v(n2)           
--------------------------------------------------------------------------------
113	1.062800e-03	-7.88258e-14	9.925317e-09	1.193530e-02	
114	1.072800e-03	-4.10783e-15	1.726119e-08	1.169895e-02	
115	1.082800e-03	9.975354e-14	2.742390e-08	1.146729e-02	
116	1.092800e-03	5.578871e-14	2.277641e-08	1.124022e-02	
117	1.102800e-03	-1.83187e-14	1.517591e-08	1.101764e-02	
118	1.112800e-03	3.358425e-14	2.018938e-08	1.079947e-02	
119	1.122800e-03	-4.97935e-14	1.169219e-08	1.058562e-02	
120	1.132800e-03	-1.10301e-13	5.555242e-09	1.037600e-02	
121	1.142800e-03	3.702594e-14	2.015933e-08	1.017053e-02	
122	1.152800e-03	-1.99840e-14	1.428611e-08	9.969137e-03	
123	1.162800e-03	-5.65104e-14	1.050949e-08	9.771728e-03	
124	1.172800e-03	2.609024e-15	1.628745e-08	9.578229e-03	
125	1.182800e-03	3.869127e-14	1.971566e-08	9.388561e-03	
126	1.192800e-03	4.052314e-15	1.607282e-08	9.202649e-03	
127	1.202800e-03	1.182388e-14	1.668618e-08	9.020418e-03	
128	1.212800e-03	5.501155e-14	2.081743e-08	8.841796e-03	
129	1.222800e-03	4.735101e-14	1.984805e-08	8.666711e-03	
130	1.232800e-03	5.445644e-14	2.035756e-08	8.495093e-03	
131	1.242800e-03	6.827872e-15	1.541584e-08	8.326873e-03	
132	1.252800e-03	-4.84057e-14	9.766567e-09	8.161985e-03	
133	1.262800e-03	-2.08167e-14	1.241457e-08	8.000361e-03	
134	1.272800e-03	-2.81997e-14	1.155641e-08	7.841938e-03	
135	1.282800e-03	-7.29972e-15	1.352102e-08	7.686652e-03	
136	1.292800e-03	-4.71845e-14	9.417850e-09	7.534441e-03	
137	1.302800e-03	4.793388e-14	1.878865e-08	7.385244e-03	
138	1.312800e-03	-1.14908e-14	1.268880e-08	7.239002e-03	
139	1.322800e-03	-3.23352e-14	1.048847e-08	7.095655e-03	
140	1.332800e-03	3.497203e-14	1.708135e-08	6.955147e-03	
141	1.342800e-03	-3.21965e-15	1.311122e-08	6.817422e-03	
142	1.352800e-03	-3.27238e-14	1.004502e-08	6.682423e-03	
143	1.362800e-03	-4.40481e-14	8.818272e-09	6.550098e-03	
144	1.372800e-03	5.773160e-15	1.368787e-08	6.420393e-03	
145	1.382800e-03	2.867151e-14	1.583011e-08	6.293257e-03	
146	1.392800e-03	1.210143e-14	1.402383e-08	6.168638e-03	
147	1.402800e-03	-4.56024e-14	8.142619e-09	6.046486e-03	
148	1.412800e-03	-3.16691e-14	9.447995e-09	5.926754e-03	
149	1.422800e-03	-4.98768e-14	7.542278e-09	5.809393e-03	
150	1.432800e-03	3.441691e-15	1.277255e-08	5.694355e-03	
151	1.442800e-03	4.962697e-14	1.724101e-08	5.581596e-03	
152	1.452800e-03	8.076873e-15	1.293512e-08	5.471069e-03	
153	1.462800e-03	1.038059e-14	1.303564e-08	5.362731e-03	
154	1.472800e-03	5.317968e-14	1.716455e-08	5.256538e-03	
155	1.482800e-03	3.361200e-14	1.504672e-08	5.152448e-03	
156	1.492800e-03	-1.33227e-14	1.022689e-08	5.050420e-03	
157	1.502800e-03	-1.70974e-14	9.749528e-09	4.950411e-03	
158	1.512800e-03	-6.43929e-15	1.071303e-08	4.852383e-03	
159	1.522800e-03	-1.42664e-14	9.827619e-09	4.756297e-03	
160	1.532800e-03	1.132427e-14	1.227616e-08	4.662113e-03	
161	1.542800e-03	6.217249e-15	1.164585e-08	4.569794e-03	
162	1.552800e-03	7.771561e-15	1.168463e-08	4.479303e-03	
163	1.562800e-03	3.830269e-15	1.117620e-08	4.390603e-03	
164	1.572800e-03	2.714495e-14	1.338486e-08	4.303661e-03	
165	1.582800e-03	-2.32869e-14	8.233580e-09	4.218440e-03	
166	1.592800e-03	2.564615e-14	1.302062e-08	4.134906e-03	
167	1.602800e-03	-1.45162e-14	8.894808e-09	4.053027e-03	
168	1.612800e-03	9.325873e-15	1.117864e-08	3.972769e-03	
169	1.622800e-03	2.828293e-14	1.295369e-08	3.894100e-03	
170	1.632800e-03	7.382983e-15	1.074520e-08	3.816989e-03	

Index   time            v(out1)         v(out2)         v(n2)           
--------------------------------------------------------------------------------
171	1.642800e-03	6.800116e-15	1.058029e-08	3.741406e-03	
172	1.652800e-03	1.172673e-14	1.096522e-08	3.667318e-03	
173	1.662800e-03	2.109424e-14	1.178820e-08	3.594698e-03	
174	1.672800e-03	-1.73889e-14	7.841742e-09	3.523516e-03	
175	1.682800e-03	-2.17187e-14	7.332882e-09	3.453743e-03	
176	1.692800e-03	-2.21767e-14	7.214349e-09	3.385352e-03	
177	1.702800e-03	-2.35922e-16	9.325727e-09	3.318316e-03	
178	1.712800e-03	-1.93318e-14	7.332851e-09	3.252607e-03	
179	1.722800e-03	-2.80331e-15	8.904508e-09	3.188198e-03	
180	1.732800e-03	-1.61399e-14	7.488886e-09	3.125066e-03	
181	1.742800e-03	1.082467e-14	1.009741e-08	3.063183e-03	
182	1.752800e-03	-2.25930e-14	6.671791e-09	3.002526e-03	
183	1.762800e-03	1.121325e-14	9.969216e-09	2.943070e-03	
184	1.772800e-03	1.834644e-14	1.057979e-08	2.884792e-03	
185	1.782800e-03	-1.25594e-14	7.399310e-09	2.827667e-03	
186	1.792800e-03	-2.54241e-14	6.045614e-09	2.771674e-03	
187	1.802800e-03	1.637579e-15	8.678164e-09	2.716789e-03	
188	1.812800e-03	-2.12469e-14	6.314752e-09	2.662991e-03	
189	1.822800e-03	-1.60150e-14	6.772509e-09	2.610259e-03	
190	1.832800e-03	-1.56819e-15	8.142611e-09	2.558570e-03	
191	1.842800e-03	1.693090e-15	8.386095e-09	2.507906e-03	
192	1.852800e-03	-9.70057e-15	7.168954e-09	2.458244e-03	
193	1.862800e-03	-5.41234e-15	7.524311e-09	2.409566e-03	
194	1.872800e-03	1.008915e-14	8.991879e-09	2.361852e-03	
195	1.882800e-03	-2.53964e-15	7.645812e-09	2.315083e-03	
196	1.892800e-03	7.299716e-15	8.548774e-09	2.269239e-03	
197	1.902800e-03	2.609024e-15	7.996976e-09	2.224304e-03	
198	1.912800e-03	1.067202e-14	8.719692e-09	2.180258e-03	
199	1.922800e-03	3.330669e-16	7.604178e-09	2.137085e-03	
200	1.932800e-03	-3.71925e-15	7.125299e-09	2.094766e-03	
201	1.942800e-03	-4.98213e-15	6.928741e-09	2.053286e-03	
202	1.952800e-03	9.298118e-16	7.448051e-09	2.012627e-03	
203	1.962800e-03	8.923418e-15	8.169324e-09	1.972773e-03	
204	1.972800e-03	-8.52096e-15	6.352278e-09	1.933708e-03	
205	1.982800e-03	-9.85323e-15	6.156508e-09	1.895417e-03	
206	1.992800e-03	9.874046e-15	8.058162e-09	1.857884e-03	
207	2.002800e-03	1.293410e-14	8.282464e-09	1.821094e-03	
208	2.012800e-03	-5.06539e-15	6.409057e-09	1.785033e-03	
209	2.022800e-03	8.430756e-15	7.688186e-09	1.749685e-03	
210	2.032800e-03	-4.07313e-15	6.367519e-09	1.715038e-03	
211	2.042800e-03	-6.17562e-16	6.647998e-09	1.681077e-03	
212	2.052800e-03	9.645063e-16	6.739268e-09	1.647788e-03	
213	2.062800e-03	1.700029e-15	6.745397e-09	1.615159e-03	
214	2.072800e-03	-2.24126e-15	6.286111e-09	1.583176e-03	
215	2.082800e-03	8.944234e-15	7.336547e-09	1.551826e-03	
216	2.092800e-03	1.130346e-14	7.498295e-09	1.521096e-03	
217	2.102800e-03	7.306655e-15	7.025994e-09	1.490976e-03	
218	2.112800e-03	-1.15602e-14	5.078784e-09	1.461451e-03	
219	2.122800e-03	6.356027e-15	6.810958e-09	1.432512e-03	
220	2.132800e-03	-1.09426e-14	5.021927e-09	1.404145e-03	
221	2.142800e-03	-1.09981e-14	4.966434e-09	1.376340e-03	
222	2.152800e-03	1.028344e-14	7.034588e-09	1.349086e-03	
223	2.162800e-03	1.151856e-15	6.055977e-09	1.322371e-03	
224	2.172800e-03	1.956768e-15	6.075809e-09	1.296186e-03	
225	2.182800e-03	-4.61436e-15	5.361509e-09	1.270519e-03	
226	2.192800e-03	-5.32213e-15	5.237736e-09	1.245360e-03	
227	2.202800e-03	4.357625e-15	6.148779e-09	1.220699e-03	
228	2.212800e-03	5.058454e-15	6.157332e-09	1.196527e-03	

Index   time            v(out1)         v(out2)         v(n2)           
--------------------------------------------------------------------------------
229	2.222800e-03	6.473988e-15	6.236914e-09	1.172834e-03	
230	2.232800e-03	-4.81559e-15	5.051514e-09	1.149609e-03	
231	2.242800e-03	4.864165e-15	5.964410e-09	1.126845e-03	
232	2.252800e-03	6.071532e-15	6.025199e-09	1.104531e-03	
233	2.262800e-03	-6.73767e-15	4.690699e-09	1.082659e-03	
234	2.272800e-03	4.031497e-15	5.715584e-09	1.061220e-03	
235	2.282800e-03	-3.64292e-15	4.895089e-09	1.040206e-03	
236	2.292800e-03	1.734723e-16	5.226122e-09	1.019608e-03	
237	2.302800e-03	-4.62130e-15	4.697029e-09	9.994175e-04	
238	2.312800e-03	-9.36751e-16	5.016914e-09	9.796271e-04	
239	2.322800e-03	-4.81559e-15	4.581041e-09	9.602285e-04	
240	2.332800e-03	4.243134e-15	5.436824e-09	9.412141e-04	
241	2.342800e-03	-6.18949e-15	4.344654e-09	9.225762e-04	
242	2.352800e-03	-5.41581e-15	4.378407e-09	9.043074e-04	
243	2.362800e-03	5.821732e-15	5.453004e-09	8.864003e-04	
244	2.372800e-03	4.354156e-15	5.252718e-09	8.688478e-04	
245	2.382800e-03	-3.83721e-15	4.385391e-09	8.516429e-04	
246	2.392800e-03	3.504141e-16	4.758434e-09	8.347787e-04	
247	2.402800e-03	1.932482e-15	4.868506e-09	8.182484e-04	
248	2.412800e-03	6.935424e-15	5.317868e-09	8.020455e-04	
249	2.422800e-03	1.245531e-15	4.698796e-09	7.861634e-04	
250	2.432800e-03	-2.17187e-15	4.312001e-09	7.705958e-04	
251	2.442800e-03	3.518019e-15	4.835254e-09	7.553365e-04	
252	2.452800e-03	-1.59248e-15	4.278635e-09	7.403793e-04	
253	2.462800e-03	-9.88792e-16	4.296130e-09	7.257183e-04	
254	2.472800e-03	2.421674e-15	4.592732e-09	7.113477e-04	
255	2.482800e-03	1.006140e-16	4.316082e-09	6.972616e-04	
256	2.492800e-03	4.714978e-15	4.732277e-09	6.834544e-04	
257	2.502800e-03	4.961309e-15	4.709700e-09	6.699207e-04	
258	2.512800e-03	2.109424e-15	4.379067e-09	6.566549e-04	
259	2.522800e-03	6.133982e-15	4.735948e-09	6.436518e-04	
260	2.532800e-03	-2.66800e-15	3.813005e-09	6.309063e-04	
261	2.542800e-03	-2.76168e-15	3.765744e-09	6.184131e-04	
262	2.552800e-03	9.402201e-16	4.096622e-09	6.061673e-04	
263	2.562800e-03	2.720046e-15	4.232956e-09	5.941640e-04	
264	2.572800e-03	-2.24126e-15	3.697175e-09	5.823983e-04	
265	2.582800e-03	-4.75314e-16	3.836103e-09	5.708657e-04	
266	2.592800e-03	5.793976e-16	3.902880e-09	5.595614e-04	
267	2.602800e-03	-1.71044e-15	3.636201e-09	5.484810e-04	
268	2.612800e-03	2.879641e-16	3.798866e-09	5.376200e-04	
269	2.622800e-03	3.552714e-15	4.085917e-09	5.269740e-04	
270	2.632800e-03	-7.97973e-17	3.683817e-09	5.165389e-04	
271	2.642800e-03	-5.13478e-16	3.604010e-09	5.063104e-04	
272	2.652800e-03	-3.52496e-15	3.268499e-09	4.962845e-04	
273	2.662800e-03	2.893519e-15	3.874631e-09	4.864571e-04	
274	2.672800e-03	-2.00708e-15	3.348456e-09	4.768242e-04	
275	2.682800e-03	1.942890e-16	3.534179e-09	4.673822e-04	
276	2.692800e-03	1.471046e-15	3.626054e-09	4.581271e-04	
277	2.702800e-03	3.252607e-15	3.767244e-09	4.490553e-04	
278	2.712800e-03	-5.62050e-16	3.350191e-09	4.401631e-04	
279	2.722800e-03	-2.96117e-15	3.078137e-09	4.314470e-04	
280	2.732800e-03	-3.02883e-15	3.040777e-09	4.229035e-04	
281	2.742800e-03	3.335873e-15	3.643824e-09	4.145291e-04	
282	2.752800e-03	3.058317e-15	3.579949e-09	4.063207e-04	
283	2.762800e-03	1.894318e-15	3.428507e-09	3.982747e-04	
284	2.772800e-03	-7.80626e-17	3.198136e-09	3.903881e-04	
285	2.782800e-03	5.134781e-16	3.225173e-09	3.826576e-04	
286	2.792800e-03	-1.68268e-15	2.974559e-09	3.750802e-04	

Index   time            v(out1)         v(out2)         v(n2)           
--------------------------------------------------------------------------------
287	2.802800e-03	5.447032e-16	3.166592e-09	3.676529e-04	
288	2.812800e-03	5.585810e-16	3.136464e-09	3.603726e-04	
289	2.822800e-03	8.378714e-16	3.133046e-09	3.532366e-04	
290	2.832800e-03	-2.15973e-15	2.803602e-09	3.462418e-04	
291	2.842800e-03	1.665335e-15	3.156309e-09	3.393855e-04	
292	2.852800e-03	3.245668e-15	3.282150e-09	3.326650e-04	
293	2.862800e-03	-1.44676e-15	2.782584e-09	3.260776e-04	
294	2.872800e-03	1.590741e-15	3.057135e-09	3.196206e-04	
295	2.882800e-03	1.283695e-15	2.996164e-09	3.132915e-04	
296	2.892800e-03	3.642919e-16	2.874869e-09	3.070877e-04	
297	2.902800e-03	2.046974e-16	2.830383e-09	3.010067e-04	
298	2.912800e-03	-5.48173e-16	2.727307e-09	2.950462e-04	
299	2.922800e-03	1.002670e-15	2.854483e-09	2.892037e-04	
300	2.932800e-03	-1.68615e-15	2.558536e-09	2.834769e-04	
301	2.942800e-03	7.164408e-16	2.772141e-09	2.778635e-04	
302	2.952800e-03	2.081668e-17	2.675341e-09	2.723612e-04	
303	2.962800e-03	-9.55833e-16	2.551542e-09	2.669680e-04	
304	2.972800e-03	-7.82360e-16	2.543415e-09	2.616815e-04	
305	2.982800e-03	1.675743e-15	2.762694e-09	2.564996e-04	
306	2.992800e-03	6.817463e-16	2.636300e-09	2.514204e-04	
307	3.002800e-03	-1.30625e-15	2.412258e-09	2.464418e-04	
308	3.012800e-03	8.838416e-16	2.606174e-09	2.415618e-04	
309	3.022800e-03	-6.51389e-16	2.427483e-09	2.367784e-04	
310	3.032800e-03	1.021752e-15	2.569811e-09	2.320897e-04	
311	3.042800e-03	-1.25160e-15	2.318036e-09	2.274939e-04	
312	3.052800e-03	1.703498e-15	2.589011e-09	2.229890e-04	
313	3.062800e-03	-1.05384e-15	2.288887e-09	2.185734e-04	
314	3.072800e-03	6.505213e-16	2.435701e-09	2.142452e-04	
315	3.082800e-03	-1.70697e-15	2.176889e-09	2.100028e-04	
316	3.092800e-03	-1.96891e-16	2.305485e-09	2.058443e-04	
317	3.102800e-03	8.161874e-16	2.383348e-09	2.017682e-04	
318	3.112800e-03	-1.73559e-15	2.105725e-09	1.977727e-04	
319	3.122800e-03	-4.03323e-16	2.217337e-09	1.938565e-04	
320	3.132800e-03	-1.35742e-15	2.100338e-09	1.900177e-04	
321	3.142800e-03	1.474515e-16	2.229178e-09	1.862550e-04	
322	3.152800e-03	-6.67869e-17	2.185680e-09	1.825668e-04	
323	3.162800e-03	-5.83734e-16	2.112494e-09	1.789516e-04	
324	3.172800e-03	9.098625e-16	2.240091e-09	1.754080e-04	
325	3.182800e-03	2.801578e-16	2.155144e-09	1.719346e-04	
326	3.192800e-03	-1.09461e-15	1.996907e-09	1.685299e-04	
327	3.202800e-03	-1.46758e-15	1.939927e-09	1.651927e-04	
328	3.212800e-03	8.213916e-16	2.148382e-09	1.619216e-04	
329	3.222800e-03	-3.98986e-17	2.041304e-09	1.587152e-04	
330	3.232800e-03	-5.71591e-16	1.968088e-09	1.555723e-04	
331	3.242800e-03	-1.80411e-16	1.987429e-09	1.524917e-04	
332	3.252800e-03	2.471981e-16	2.010201e-09	1.494720e-04	
333	3.262800e-03	-6.93889e-17	1.958698e-09	1.465122e-04	
334	3.272800e-03	9.367507e-17	1.955434e-09	1.436110e-04	
335	3.282800e-03	-3.60822e-16	1.890753e-09	1.407672e-04	
336	3.292800e-03	-6.95624e-16	1.838626e-09	1.379797e-04	
337	3.302800e-03	2.350550e-16	1.912936e-09	1.352474e-04	
338	3.312800e-03	-7.88432e-16	1.792063e-09	1.325693e-04	
339	3.322800e-03	-7.12104e-16	1.781826e-09	1.299441e-04	
340	3.332800e-03	-5.65520e-16	1.778682e-09	1.273710e-04	
341	3.342800e-03	-4.96998e-16	1.767802e-09	1.248488e-04	
342	3.352800e-03	8.326673e-17	1.807949e-09	1.223765e-04	
343	3.362800e-03	-5.55979e-16	1.726353e-09	1.199532e-04	
344	3.372800e-03	-7.06900e-16	1.694159e-09	1.175779e-04	

Index   time            v(out1)         v(out2)         v(n2)           
--------------------------------------------------------------------------------
345	3.382800e-03	4.085274e-16	1.788289e-09	1.152496e-04	
346	3.392800e-03	8.703975e-16	1.816452e-09	1.129675e-04	
347	3.402800e-03	-2.57173e-16	1.686182e-09	1.107305e-04	
348	3.412800e-03	1.916869e-16	1.714067e-09	1.085378e-04	
349	3.422800e-03	-3.27863e-16	1.645315e-09	1.063885e-04	
350	3.432800e-03	6.023827e-16	1.721505e-09	1.042818e-04	
351	3.442800e-03	-4.67074e-16	1.597962e-09	1.022169e-04	
352	3.452800e-03	5.533768e-16	1.683600e-09	1.001928e-04	
353	3.462800e-03	8.716985e-17	1.620459e-09	9.820875e-05	
354	3.472800e-03	-3.58654e-16	1.559974e-09	9.626402e-05	
355	3.482800e-03	-2.22478e-16	1.558002e-09	9.435780e-05	
356	3.492800e-03	5.915407e-16	1.623496e-09	9.248933e-05	
357	3.502800e-03	4.770490e-18	1.548957e-09	9.065786e-05	
358	3.512800e-03	7.190429e-16	1.604616e-09	8.886265e-05	
359	3.522800e-03	-7.19477e-16	1.445514e-09	8.710300e-05	
360	3.532800e-03	-4.89626e-16	1.454001e-09	8.537819e-05	
361	3.542800e-03	-2.94903e-17	1.485318e-09	8.368753e-05	
362	3.552800e-03	-3.58220e-16	1.437829e-09	8.203035e-05	
363	3.562800e-03	-2.94903e-17	1.456232e-09	8.040599e-05	
364	3.572800e-03	-1.73906e-16	1.427373e-09	7.881379e-05	
365	3.582800e-03	-4.39319e-16	1.386761e-09	7.725312e-05	
366	3.592800e-03	6.808790e-17	1.423450e-09	7.572335e-05	
367	3.602800e-03	1.439820e-16	1.416838e-09	7.422388e-05	
368	3.612800e-03	-1.30104e-16	1.375468e-09	7.275410e-05	
369	3.622800e-03	-2.62811e-16	1.348577e-09	7.131343e-05	
370	3.632800e-03	-2.34188e-17	1.358979e-09	6.990128e-05	
371	3.642800e-03	-2.33320e-16	1.324571e-09	6.851710e-05	
372	3.652800e-03	-2.03830e-17	1.332579e-09	6.716032e-05	
373	3.662800e-03	4.132979e-16	1.362471e-09	6.583041e-05	
374	3.672800e-03	-1.96024e-16	1.288286e-09	6.452684e-05	
375	3.682800e-03	-1.20997e-16	1.282932e-09	6.324908e-05	
376	3.692800e-03	-1.35742e-16	1.268699e-09	6.199663e-05	
377	3.702800e-03	4.271757e-16	1.312087e-09	6.076897e-05	
378	3.712800e-03	6.310057e-17	1.262805e-09	5.956562e-05	
379	3.722800e-03	-5.03070e-17	1.238956e-09	5.838611e-05	
380	3.732800e-03	1.353084e-16	1.245097e-09	5.722995e-05	
381	3.742800e-03	1.151423e-16	1.230701e-09	5.609668e-05	
382	3.752800e-03	-2.47198e-17	1.204539e-09	5.498585e-05	
383	3.762800e-03	1.088539e-16	1.205844e-09	5.389703e-05	
384	3.772800e-03	4.119968e-16	1.224010e-09	5.282976e-05	
385	3.782800e-03	-1.96241e-16	1.151309e-09	5.178362e-05	
386	3.792800e-03	4.033232e-16	1.199511e-09	5.075821e-05	
387	3.802800e-03	-1.15576e-16	1.135944e-09	4.975309e-05	
388	3.812800e-03	-3.53016e-16	1.101015e-09	4.876788e-05	
389	3.822800e-03	2.194425e-16	1.147021e-09	4.780218e-05	
390	3.832800e-03	1.682682e-16	1.130516e-09	4.685560e-05	
391	3.842800e-03	2.823262e-16	1.130616e-09	4.592777e-05	
392	3.852800e-03	2.428613e-17	1.093691e-09	4.501831e-05	
393	3.862800e-03	-4.18719e-16	1.038728e-09	4.412686e-05	
394	3.872800e-03	-1.38344e-16	1.056290e-09	4.325306e-05	
395	3.882800e-03	-4.01155e-17	1.055554e-09	4.239656e-05	
396	3.892800e-03	-1.55691e-16	1.033551e-09	4.155703e-05	
397	3.902800e-03	-1.58944e-16	1.022943e-09	4.073412e-05	
398	3.912800e-03	-1.33574e-16	1.015289e-09	3.992750e-05	
399	3.922800e-03	1.324895e-16	1.031661e-09	3.913686e-05	
400	3.932800e-03	-1.70003e-16	9.912966e-10	3.836187e-05	
401	3.942800e-03	1.784597e-16	1.016106e-09	3.760223e-05	
402	3.952800e-03	-3.05745e-17	9.851959e-10	3.685763e-05	

Index   time            v(out1)         v(out2)         v(n2)           
--------------------------------------------------------------------------------
403	3.962800e-03	2.131541e-16	9.996446e-10	3.612777e-05	
404	3.972800e-03	-4.35849e-17	9.641517e-10	3.541237e-05	
405	3.982800e-03	1.288032e-16	9.717112e-10	3.471114e-05	
406	3.992800e-03	2.190088e-17	9.514054e-10	3.402379e-05	
407	4.002800e-03	7.546047e-17	9.472680e-10	3.335005e-05	
408	4.012800e-03	7.914676e-17	9.382092e-10	3.268965e-05	
409	4.022800e-03	1.298874e-16	9.339226e-10	3.204233e-05	
410	4.032800e-03	-1.28153e-16	8.989542e-10	3.140783e-05	
411	4.042800e-03	-1.03650e-16	8.924475e-10	3.078589e-05	
412	4.052800e-03	1.662082e-16	9.104190e-10	3.017627e-05	
413	4.062800e-03	4.119968e-18	8.852319e-10	2.957872e-05	
414	4.072800e-03	-6.76542e-17	8.692819e-10	2.899301e-05	
415	4.082800e-03	6.830474e-18	8.680438e-10	2.841889e-05	
416	4.092800e-03	-1.57318e-16	8.430733e-10	2.785614e-05	
417	4.102800e-03	-1.25767e-16	8.378239e-10	2.730453e-05	
418	4.112800e-03	-3.06829e-17	8.389485e-10	2.676385e-05	
419	4.122800e-03	-1.45608e-16	8.191654e-10	2.623387e-05	
420	4.132800e-03	-2.21719e-16	8.034412e-10	2.571439e-05	
421	4.142800e-03	-4.78133e-17	8.127509e-10	2.520519e-05	
422	4.152800e-03	8.760354e-17	8.181381e-10	2.470608e-05	
423	4.162800e-03	-9.90961e-17	7.914204e-10	2.421685e-05	
424	4.172800e-03	1.656661e-16	8.098900e-10	2.373731e-05	
425	4.182800e-03	-4.65123e-17	7.807191e-10	2.326726e-05	
426	4.192800e-03	-1.55475e-16	7.621088e-10	2.280652e-05	
427	4.202800e-03	-1.10589e-16	7.589919e-10	2.235491e-05	
428	4.212800e-03	-1.76508e-16	7.448806e-10	2.191224e-05	
429	4.222800e-03	-1.72063e-16	7.379111e-10	2.147833e-05	
430	4.232800e-03	-1.94614e-16	7.283248e-10	2.105302e-05	
431	4.242800e-03	-1.50596e-16	7.254577e-10	2.063613e-05	
432	4.252800e-03	1.084202e-16	7.440120e-10	2.022749e-05	
433	4.262800e-03	-2.80808e-17	7.230267e-10	1.982695e-05	
434	4.272800e-03	7.730361e-17	7.263184e-10	1.943433e-05	
435	4.282800e-03	-8.48930e-17	7.029524e-10	1.904950e-05	
436	4.292800e-03	-5.08491e-17	6.993453e-10	1.867228e-05	
437	4.302800e-03	6.385951e-17	7.038004e-10	1.830253e-05	
438	4.312800e-03	9.606031e-17	7.000015e-10	1.794010e-05	
439	4.322800e-03	4.163336e-17	6.876207e-10	1.758485e-05	
440	4.332800e-03	-1.26852e-17	6.753739e-10	1.723664e-05	
441	4.342800e-03	7.903834e-17	6.777804e-10	1.689532e-05	
442	4.352800e-03	6.906368e-17	6.700439e-10	1.656076e-05	
443	4.362800e-03	2.276825e-18	6.567313e-10	1.623282e-05	
444	4.372800e-03	-1.01481e-16	6.398725e-10	1.591138e-05	
445	4.382800e-03	4.965646e-17	6.485442e-10	1.559630e-05	
446	4.392800e-03	9.942134e-17	6.470427e-10	1.528747e-05	
447	4.402800e-03	-5.98480e-17	6.247568e-10	1.498474e-05	
448	4.412800e-03	-4.11455e-17	6.204012e-10	1.468802e-05	
449	4.422800e-03	-5.82217e-17	6.125290e-10	1.439716e-05	
450	4.432800e-03	9.703609e-17	6.218827e-10	1.411207e-05	
451	4.442800e-03	-9.33498e-17	5.967509e-10	1.383263e-05	
452	4.452800e-03	-7.19910e-17	5.929384e-10	1.355871e-05	
453	4.462800e-03	6.136584e-17	6.003078e-10	1.329022e-05	
454	4.472800e-03	-4.45607e-17	5.837947e-10	1.302705e-05	
455	4.482800e-03	-5.12286e-17	5.773223e-10	1.276909e-05	
456	4.492800e-03	-4.48318e-17	5.722143e-10	1.251624e-05	
457	4.502800e-03	-8.26162e-17	5.627610e-10	1.226839e-05	
458	4.512800e-03	-2.78098e-17	5.626147e-10	1.202545e-05	
459	4.522800e-03	-2.30935e-17	5.574858e-10	1.178732e-05	
460	4.532800e-03	-4.86265e-17	5.493981e-10	1.155391e-05	

Index   time            v(out1)         v(out2)         v(n2)           
--------------------------------------------------------------------------------
461	4.542800e-03	-6.13658e-17	5.426639e-10	1.132512e-05	
462	4.552800e-03	1.582935e-17	5.449454e-10	1.110086e-05	
463	4.562800e-03	5.702903e-17	5.436225e-10	1.088104e-05	
464	4.572800e-03	-3.40982e-17	5.291459e-10	1.066558e-05	
465	4.582800e-03	8.863353e-17	5.360929e-10	1.045438e-05	
466	4.592800e-03	1.810618e-17	5.237410e-10	1.024736e-05	
467	4.602800e-03	-5.77880e-17	5.109780e-10	1.004444e-05	
468	4.612800e-03	-3.81639e-17	5.078463e-10	9.845541e-06	
469	4.622800e-03	-2.71051e-17	5.038935e-10	9.650579e-06	
470	4.632800e-03	-3.58871e-17	4.980058e-10	9.459479e-06	
471	4.642800e-03	4.363914e-17	5.009635e-10	9.272162e-06	
472	4.652800e-03	1.420305e-17	4.930499e-10	9.088555e-06	
473	4.662800e-03	-1.97867e-17	4.847618e-10	8.908584e-06	
474	4.672800e-03	-3.53992e-17	4.783848e-10	8.732176e-06	
475	4.682800e-03	-4.85723e-17	4.723140e-10	8.559262e-06	
476	4.692800e-03	2.564138e-17	4.749988e-10	8.389772e-06	
477	4.702800e-03	-5.51859e-17	4.622300e-10	8.223637e-06	
478	4.712800e-03	-1.54499e-17	4.615845e-10	8.060793e-06	
479	4.722800e-03	-2.00035e-17	4.565385e-10	7.901173e-06	
480	4.732800e-03	2.883978e-17	4.568559e-10	7.744715e-06	
481	4.742800e-03	-2.74574e-17	4.467083e-10	7.591354e-06	
482	4.752800e-03	-1.82417e-17	4.431805e-10	7.441030e-06	
483	4.762800e-03	3.499263e-17	4.440677e-10	7.293683e-06	
484	4.772800e-03	-5.69206e-18	4.356008e-10	7.149254e-06	
485	4.782800e-03	2.482823e-17	4.343034e-10	7.007684e-06	
486	4.792800e-03	2.111484e-17	4.296124e-10	6.868918e-06	
487	4.802800e-03	-2.06812e-17	4.211789e-10	6.732900e-06	
488	4.812800e-03	2.642743e-17	4.216755e-10	6.599575e-06	
489	4.822800e-03	2.122326e-17	4.169619e-10	6.468891e-06	
490	4.832800e-03	2.038300e-17	4.127294e-10	6.340794e-06	
491	4.842800e-03	-4.71628e-18	4.061252e-10	6.215233e-06	
492	4.852800e-03	-2.33917e-17	4.002259e-10	6.092160e-06	
493	4.862800e-03	-4.03323e-17	3.945579e-10	5.971523e-06	
494	4.872800e-03	5.402037e-17	4.000203e-10	5.853275e-06	
495	4.882800e-03	3.984443e-17	3.946294e-10	5.737368e-06	
496	4.892800e-03	3.333922e-17	3.900555e-10	5.623757e-06	
497	4.902800e-03	5.006304e-17	3.878384e-10	5.512396e-06	
498	4.912800e-03	4.583465e-17	3.835586e-10	5.403239e-06	
499	4.922800e-03	-1.35796e-17	3.738302e-10	5.296244e-06	
500	4.932800e-03	-2.54788e-17	3.689265e-10	5.191368e-06	
501	4.942800e-03	-1.72659e-17	3.660728e-10	5.088569e-06	
502	4.952800e-03	-1.54228e-17	3.626137e-10	4.987805e-06	
503	4.962800e-03	-2.24701e-17	3.583044e-10	4.889037e-06	
504	4.972800e-03	-6.77626e-18	3.563007e-10	4.792224e-06	
505	4.982800e-03	4.418124e-18	3.538693e-10	4.697329e-06	
506	4.992800e-03	1.271227e-17	3.511735e-10	4.604312e-06	
507	5.002800e-03	8.700722e-18	3.472801e-10	4.513138e-06	
508	5.012800e-03	-6.42390e-18	3.423196e-10	4.423769e-06	
509	5.022800e-03	-2.14401e-17	3.374193e-10	4.336169e-06	
510	5.032800e-03	-8.37546e-18	3.353619e-10	4.250304e-06	
511	5.042800e-03	-1.43657e-18	3.327154e-10	4.166140e-06	
512	5.052800e-03	1.840433e-17	3.313790e-10	4.083642e-06	
513	5.062800e-03	2.415060e-17	3.286535e-10	4.002778e-06	
514	5.072800e-03	1.924459e-18	3.231717e-10	3.923515e-06	
515	5.082800e-03	2.772847e-17	3.225236e-10	3.845822e-06	
516	5.092800e-03	-1.35525e-18	3.164205e-10	3.769667e-06	
517	5.102800e-03	1.852630e-17	3.152503e-10	3.695020e-06	
518	5.112800e-03	-1.77674e-17	3.085022e-10	3.621851e-06	

Index   time            v(out1)         v(out2)         v(n2)           
--------------------------------------------------------------------------------
519	5.122800e-03	-2.20771e-17	3.050037e-10	3.550131e-06	
520	5.132800e-03	1.553120e-17	3.057110e-10	3.479832e-06	
521	5.142800e-03	9.906897e-18	3.021094e-10	3.410924e-06	
522	5.152800e-03	2.622414e-17	3.007270e-10	3.343381e-06	
523	5.162800e-03	1.367450e-17	2.964859e-10	3.277176e-06	
524	5.172800e-03	7.318365e-19	2.922480e-10	3.212281e-06	
525	5.182800e-03	2.028813e-17	2.912860e-10	3.148672e-06	
526	5.192800e-03	3.821813e-18	2.867492e-10	3.086322e-06	
527	5.202800e-03	-5.39391e-18	2.829790e-10	3.025206e-06	
528	5.212800e-03	-9.81203e-18	2.797236e-10	2.965301e-06	
529	5.222800e-03	1.772671e-17	2.796805e-10	2.906582e-06	
530	5.232800e-03	1.962406e-17	2.770864e-10	2.849026e-06	
531	5.242800e-03	2.466560e-18	2.726221e-10	2.792610e-06	
532	5.252800e-03	2.664427e-17	2.723152e-10	2.737311e-06	
533	5.262800e-03	-2.72406e-17	2.642439e-10	2.683107e-06	
534	5.272800e-03	-1.07065e-18	2.642186e-10	2.629976e-06	
535	5.282800e-03	-1.23192e-17	2.604703e-10	2.577897e-06	
536	5.292800e-03	-8.87691e-18	2.582210e-10	2.526850e-06	
537	5.302800e-03	1.153320e-17	2.576825e-10	2.476813e-06	
538	5.312800e-03	-5.80048e-18	2.533938e-10	2.427767e-06	
539	5.322800e-03	6.776264e-19	2.515170e-10	2.379693e-06	
540	5.332800e-03	-1.92446e-18	2.487555e-10	2.332570e-06	
541	5.342800e-03	1.355253e-20	2.464731e-10	2.286380e-06	
542	5.352800e-03	1.055742e-17	2.450698e-10	2.241106e-06	
543	5.362800e-03	-8.23994e-18	2.407609e-10	2.196727e-06	
544	5.372800e-03	-1.37423e-17	2.378178e-10	2.153228e-06	
545	5.382800e-03	2.710505e-19	2.368458e-10	2.110589e-06	
546	5.392800e-03	8.768485e-18	2.353346e-10	2.068796e-06	
547	5.402800e-03	7.697835e-18	2.328865e-10	2.027829e-06	
548	5.412800e-03	3.076424e-18	2.301094e-10	1.987674e-06	
549	5.422800e-03	2.710505e-19	2.275406e-10	1.948314e-06	
550	5.432800e-03	-9.48677e-20	2.252401e-10	1.909734e-06	
551	5.442800e-03	-4.00477e-18	2.226098e-10	1.871917e-06	
552	5.452800e-03	6.681396e-18	2.214581e-10	1.834850e-06	
553	5.462800e-03	-6.03087e-19	2.185297e-10	1.798516e-06	
554	5.472800e-03	7.013433e-18	2.171132e-10	1.762902e-06	
555	5.482800e-03	1.050998e-17	2.153007e-10	1.727993e-06	
556	5.492800e-03	9.825582e-18	2.130903e-10	1.693775e-06	
557	5.502800e-03	-1.18923e-17	2.088091e-10	1.660235e-06	
558	5.512800e-03	1.143156e-17	2.090521e-10	1.627359e-06	
559	5.522800e-03	-4.17418e-18	2.054192e-10	1.595134e-06	
560	5.532800e-03	-5.96311e-18	2.031972e-10	1.563548e-06	
561	5.542800e-03	-9.78492e-18	2.007951e-10	1.532586e-06	
562	5.552800e-03	-3.92346e-18	1.993804e-10	1.502238e-06	
563	5.562800e-03	-1.33425e-17	1.964593e-10	1.472491e-06	
564	5.572800e-03	7.020209e-18	1.965306e-10	1.443332e-06	
565	5.582800e-03	-8.15862e-18	1.930647e-10	1.414752e-06	
566	5.592800e-03	1.370838e-17	1.933195e-10	1.386737e-06	
567	5.602800e-03	1.270549e-17	1.912961e-10	1.359277e-06	
568	5.612800e-03	8.653289e-18	1.889895e-10	1.332360e-06	
569	5.622800e-03	-1.32747e-17	1.849271e-10	1.305977e-06	
570	5.632800e-03	3.625301e-18	1.847686e-10	1.280116e-06	
571	5.642800e-03	1.139090e-17	1.837028e-10	1.254767e-06	
572	5.652800e-03	3.035766e-18	1.810436e-10	1.229920e-06	
573	5.662800e-03	1.572093e-18	1.790965e-10	1.205565e-06	
574	5.672800e-03	2.364916e-18	1.773933e-10	1.181693e-06	
575	5.682800e-03	5.000883e-18	1.758905e-10	1.158293e-06	
576	5.692800e-03	2.778268e-19	1.736704e-10	1.135356e-06	

Index   time            v(out1)         v(out2)         v(n2)           
--------------------------------------------------------------------------------
577	5.702800e-03	1.429792e-18	1.720570e-10	1.112874e-06	
578	5.712800e-03	3.320369e-19	1.702357e-10	1.090837e-06	
579	5.722800e-03	-1.23328e-18	1.683861e-10	1.069236e-06	
580	5.732800e-03	-3.96411e-18	1.664389e-10	1.048063e-06	
581	5.742800e-03	-3.31359e-18	1.648475e-10	1.027310e-06	
582	5.752800e-03	-3.85569e-18	1.631533e-10	1.006967e-06	
583	5.762800e-03	-8.87691e-19	1.618252e-10	9.870268e-07	
584	5.772800e-03	-5.86824e-18	1.597194e-10	9.674817e-07	
585	5.782800e-03	5.919066e-18	1.593030e-10	9.483237e-07	
586	5.792800e-03	-5.48877e-19	1.570744e-10	9.295450e-07	
587	5.802800e-03	-5.47861e-18	1.550209e-10	9.111382e-07	
588	5.812800e-03	-5.14318e-18	1.535118e-10	8.930958e-07	
589	5.822800e-03	-6.57298e-18	1.518420e-10	8.754108e-07	
590	5.832800e-03	4.431676e-18	1.514262e-10	8.580759e-07	
591	5.842800e-03	-6.16640e-19	1.494171e-10	8.410843e-07	
592	5.852800e-03	4.387631e-18	1.484283e-10	8.244292e-07	
593	5.862800e-03	-1.87025e-18	1.463287e-10	8.081038e-07	
594	5.872800e-03	-6.24094e-18	1.444378e-10	7.921018e-07	
595	5.882800e-03	6.556035e-18	1.442740e-10	7.764166e-07	
596	5.892800e-03	2.598697e-18	1.424447e-10	7.610420e-07	
597	5.902800e-03	-3.00188e-18	1.404700e-10	7.459719e-07	
598	5.912800e-03	-5.96989e-18	1.387770e-10	7.312002e-07	
599	5.922800e-03	1.544988e-18	1.381439e-10	7.167209e-07	
600	5.932800e-03	6.254491e-18	1.372379e-10	7.025284e-07	
601	5.942800e-03	1.931235e-19	1.352692e-10	6.886170e-07	
602	5.952800e-03	-6.43406e-18	1.332639e-10	6.749810e-07	
603	5.962800e-03	2.371692e-19	1.326017e-10	6.616151e-07	
604	5.972800e-03	8.605855e-19	1.313443e-10	6.485138e-07	
605	5.982800e-03	3.940397e-18	1.303438e-10	6.356719e-07	
606	5.992800e-03	-2.84603e-19	1.286265e-10	6.230843e-07	
607	6.002800e-03	-1.97867e-18	1.271780e-10	6.107460e-07	
608	6.012800e-03	-3.01544e-18	1.258094e-10	5.986521e-07	
609	6.022800e-03	-1.27733e-18	1.247305e-10	5.867976e-07	
610	6.032800e-03	1.192622e-18	1.237352e-10	5.751778e-07	
611	6.042800e-03	3.862470e-19	1.224238e-10	5.637881e-07	
612	6.052800e-03	2.693565e-18	1.214352e-10	5.526240e-07	
613	6.062800e-03	-2.85620e-18	1.196747e-10	5.416810e-07	
614	6.072800e-03	1.209563e-18	1.188884e-10	5.309546e-07	
615	6.082800e-03	2.266660e-18	1.178106e-10	5.204407e-07	
616	6.092800e-03	-1.12825e-18	1.163006e-10	5.101349e-07	
617	6.102800e-03	-2.82231e-18	1.149748e-10	5.000332e-07	
618	6.112800e-03	-1.10792e-18	1.140014e-10	4.901316e-07	
619	6.122800e-03	-2.48350e-18	1.127302e-10	4.804260e-07	
620	6.132800e-03	-2.86128e-18	1.115709e-10	4.709126e-07	
621	6.142800e-03	2.590227e-18	1.110032e-10	4.615876e-07	
622	6.152800e-03	-5.08220e-21	1.096404e-10	4.524473e-07	
623	6.162800e-03	-4.04882e-19	1.085097e-10	4.434879e-07	
624	6.172800e-03	-2.97647e-18	1.071741e-10	4.347060e-07	
625	6.182800e-03	2.964615e-18	1.066988e-10	4.260979e-07	
626	6.192800e-03	2.903629e-18	1.056311e-10	4.176604e-07	
627	6.202800e-03	-3.06626e-18	1.039860e-10	4.093899e-07	
628	6.212800e-03	-3.37458e-18	1.029207e-10	4.012831e-07	
629	6.222800e-03	-1.95665e-18	1.020377e-10	3.933369e-07	
630	6.232800e-03	-3.76083e-19	1.011796e-10	3.855481e-07	
631	6.242800e-03	-1.33831e-18	1.000771e-10	3.779135e-07	
632	6.252800e-03	2.153158e-18	9.942873e-11	3.704300e-07	
633	6.262800e-03	-5.35325e-19	9.817188e-11	3.630948e-07	
634	6.272800e-03	-2.11250e-18	9.703811e-11	3.559048e-07	

Index   time            v(out1)         v(out2)         v(n2)           
--------------------------------------------------------------------------------
635	6.282800e-03	1.721171e-18	9.645402e-11	3.488572e-07	
636	6.292800e-03	3.184844e-19	9.535471e-11	3.419491e-07	
637	6.302800e-03	1.878719e-18	9.456115e-11	3.351778e-07	
638	6.312800e-03	-1.58056e-18	9.327604e-11	3.285406e-07	
639	6.322800e-03	2.788432e-18	9.278264e-11	3.220349e-07	
640	6.332800e-03	-3.16452e-18	9.126710e-11	3.156580e-07	
641	6.342800e-03	4.760325e-19	9.072121e-11	3.094073e-07	
642	6.352800e-03	1.516189e-18	8.992201e-11	3.032804e-07	
643	6.362800e-03	1.123166e-18	8.898816e-11	2.972749e-07	
644	6.372800e-03	3.676123e-19	8.802753e-11	2.913882e-07	
645	6.382800e-03	-9.01243e-19	8.702538e-11	2.856182e-07	
646	6.392800e-03	-8.09763e-19	8.616856e-11	2.799624e-07	
647	6.402800e-03	1.241750e-18	8.551529e-11	2.744186e-07	
648	6.412800e-03	3.422013e-19	8.457488e-11	2.689845e-07	
649	6.422800e-03	-8.72444e-19	8.361248e-11	2.636581e-07	
650	6.432800e-03	1.192622e-18	8.298599e-11	2.584372e-07	
651	6.442800e-03	4.743385e-19	8.208879e-11	2.533196e-07	
652	6.452800e-03	1.373887e-18	8.136150e-11	2.483034e-07	
653	6.462800e-03	1.234974e-18	8.053811e-11	2.433865e-07	
654	6.472800e-03	-4.89585e-19	7.956513e-11	2.385669e-07	
655	6.482800e-03	-1.47638e-18	7.867525e-11	2.338428e-07	
656	6.492800e-03	-6.69156e-20	7.803266e-11	2.292123e-07	
657	6.502800e-03	1.346782e-19	7.727627e-11	2.246734e-07	
658	6.512800e-03	-1.49925e-19	7.647904e-11	2.202244e-07	
659	6.522800e-03	1.059638e-18	7.583841e-11	2.158636e-07	
660	6.532800e-03	1.502636e-18	7.512787e-11	2.115890e-07	
661	6.542800e-03	7.564004e-19	7.430608e-11	2.073992e-07	
662	6.552800e-03	-1.24090e-18	7.336798e-11	2.032922e-07	
663	6.562800e-03	6.505213e-19	7.282615e-11	1.992667e-07	
664	6.572800e-03	1.539906e-18	7.219001e-11	1.953208e-07	
665	6.582800e-03	1.998998e-19	7.133837e-11	1.914530e-07	
666	6.592800e-03	-8.04681e-20	7.060064e-11	1.876619e-07	
667	6.602800e-03	-6.97955e-19	6.983670e-11	1.839458e-07	
668	6.612800e-03	1.522965e-18	6.936280e-11	1.803033e-07	
669	6.622800e-03	3.701534e-19	6.855791e-11	1.767330e-07	
670	6.632800e-03	-1.31036e-18	6.770853e-11	1.732333e-07	
671	6.642800e-03	-1.07827e-18	6.705790e-11	1.698029e-07	
672	6.652800e-03	-2.63427e-19	6.647174e-11	1.664405e-07	
673	6.662800e-03	1.362876e-18	6.597215e-11	1.631446e-07	
674	6.672800e-03	2.405574e-19	6.520404e-11	1.599141e-07	
675	6.682800e-03	-7.69953e-19	6.445469e-11	1.567474e-07	
676	6.692800e-03	-6.37816e-19	6.382650e-11	1.536435e-07	
677	6.702800e-03	6.716971e-19	6.332171e-11	1.506011e-07	
678	6.712800e-03	-5.84453e-20	6.261899e-11	1.476189e-07	
679	6.722800e-03	-1.00797e-19	6.199170e-11	1.446957e-07	
680	6.732800e-03	-3.48978e-19	6.135018e-11	1.418305e-07	
681	6.742800e-03	-7.91129e-19	6.069573e-11	1.390220e-07	
682	6.752800e-03	8.385626e-19	6.025395e-11	1.362690e-07	
683	6.762800e-03	4.489275e-20	5.957544e-11	1.335707e-07	
684	6.772800e-03	2.998497e-19	5.900802e-11	1.309257e-07	
685	6.782800e-03	-5.12455e-19	5.834005e-11	1.283331e-07	
686	6.792800e-03	-6.96261e-19	5.774126e-11	1.257919e-07	
687	6.802800e-03	6.776264e-21	5.723667e-11	1.233009e-07	
688	6.812800e-03	-4.91279e-19	5.661760e-11	1.208593e-07	
689	6.822800e-03	7.394598e-19	5.617670e-11	1.184661e-07	
690	6.832800e-03	-2.88838e-19	5.551541e-11	1.161202e-07	
691	6.842800e-03	-5.69630e-19	5.493508e-11	1.138208e-07	
692	6.852800e-03	5.425246e-19	5.449912e-11	1.115669e-07	

Index   time            v(out1)         v(out2)         v(n2)           
--------------------------------------------------------------------------------
693	6.862800e-03	3.726945e-20	5.390657e-11	1.093577e-07	
694	6.872800e-03	-6.97108e-19	5.329711e-11	1.071922e-07	
695	6.882800e-03	-7.69529e-19	5.275959e-11	1.050696e-07	
696	6.892800e-03	-8.37716e-19	5.222783e-11	1.029890e-07	
697	6.902800e-03	3.303428e-20	5.179479e-11	1.009496e-07	
698	6.912800e-03	1.732182e-19	5.129337e-11	9.895058e-08	
699	6.922800e-03	-5.87841e-19	5.070726e-11	9.699116e-08	
700	6.932800e-03	5.620064e-19	5.031712e-11	9.507055e-08	
701	6.942800e-03	-3.30343e-19	4.972766e-11	9.318796e-08	
702	6.952800e-03	-7.43695e-19	4.919173e-11	9.134266e-08	
703	6.962800e-03	5.920760e-19	4.883518e-11	8.953389e-08	
704	6.972800e-03	8.190809e-19	4.837184e-11	8.776094e-08	
705	6.982800e-03	3.811648e-21	4.780941e-11	8.602310e-08	
706	6.992800e-03	-1.18585e-19	4.732151e-11	8.431967e-08	
707	7.002800e-03	5.124549e-20	4.686755e-11	8.264998e-08	
708	7.012800e-03	-5.80641e-19	4.633833e-11	8.101334e-08	
709	7.022800e-03	3.811648e-20	4.593882e-11	7.940912e-08	
710	7.032800e-03	-4.05729e-19	4.543756e-11	7.783666e-08	
711	7.042800e-03	1.105378e-19	4.503681e-11	7.629534e-08	
712	7.052800e-03	-2.64698e-19	4.455135e-11	7.478454e-08	
713	7.062800e-03	-1.43996e-19	4.412006e-11	7.330366e-08	
714	7.072800e-03	-4.03188e-19	4.365526e-11	7.185210e-08	
715	7.082800e-03	4.146226e-19	4.330226e-11	7.042929e-08	
716	7.092800e-03	1.787240e-19	4.284792e-11	6.903465e-08	
717	7.102800e-03	3.515187e-20	4.240728e-11	6.766763e-08	
718	7.112800e-03	-1.36372e-19	4.196825e-11	6.632767e-08	
719	7.122800e-03	-2.82062e-19	4.153616e-11	6.501426e-08	
720	7.132800e-03	-4.21399e-19	4.110900e-11	6.372684e-08	
721	7.142800e-03	5.251604e-20	4.074711e-11	6.246493e-08	
722	7.152800e-03	1.804180e-19	4.035440e-11	6.122800e-08	
723	7.162800e-03	-1.86347e-19	3.991637e-11	6.001556e-08	
724	7.172800e-03	-4.04670e-19	3.949746e-11	5.882713e-08	
725	7.182800e-03	2.901088e-20	3.914761e-11	5.766224e-08	
726	7.192800e-03	-4.02129e-19	3.871518e-11	5.652041e-08	
727	7.202800e-03	-3.58507e-19	3.833429e-11	5.540120e-08	
728	7.212800e-03	3.180609e-19	3.802018e-11	5.430414e-08	
729	7.222800e-03	2.452160e-19	3.763462e-11	5.322882e-08	
730	7.232800e-03	-1.84653e-19	3.721737e-11	5.217478e-08	
731	7.242800e-03	-3.67824e-19	3.682883e-11	5.114162e-08	
732	7.252800e-03	-2.90744e-19	3.647004e-11	5.012891e-08	
733	7.262800e-03	8.851494e-20	3.614489e-11	4.913626e-08	
734	7.272800e-03	3.646477e-19	3.581272e-11	4.816326e-08	
735	7.282800e-03	1.785122e-19	3.543785e-11	4.720954e-08	
736	7.292800e-03	1.943941e-19	3.508681e-11	4.627469e-08	
737	7.302800e-03	-3.65706e-19	3.468196e-11	4.535836e-08	
738	7.312800e-03	-4.89162e-20	3.436839e-11	4.446018e-08	
739	7.322800e-03	-2.86509e-19	3.400277e-11	4.357978e-08	
740	7.332800e-03	-4.33046e-19	3.364986e-11	4.271681e-08	
741	7.342800e-03	2.034997e-19	3.337837e-11	4.187093e-08	
742	7.352800e-03	2.473336e-19	3.305061e-11	4.104181e-08	
743	7.362800e-03	-6.79744e-20	3.269037e-11	4.022910e-08	
744	7.372800e-03	1.905824e-20	3.237375e-11	3.943248e-08	
745	7.382800e-03	-2.16417e-19	3.202820e-11	3.865164e-08	
746	7.392800e-03	-1.95241e-19	3.171162e-11	3.788626e-08	
747	7.402800e-03	1.092673e-19	3.142638e-11	3.713604e-08	
748	7.412800e-03	5.082198e-20	3.110786e-11	3.640067e-08	
749	7.422800e-03	-1.63054e-20	3.079165e-11	3.567987e-08	
750	7.432800e-03	1.461132e-19	3.050143e-11	3.497333e-08	

Index   time            v(out1)         v(out2)         v(n2)           
--------------------------------------------------------------------------------
751	7.442800e-03	-1.84230e-19	3.016506e-11	3.428079e-08	
752	7.452800e-03	6.628033e-20	2.988984e-11	3.360197e-08	
753	7.462800e-03	6.564505e-21	2.958648e-11	3.293658e-08	
754	7.472800e-03	2.123935e-19	2.931257e-11	3.228437e-08	
755	7.482800e-03	1.907942e-19	2.901875e-11	3.164508e-08	
756	7.492800e-03	9.275011e-20	2.872026e-11	3.101844e-08	
757	7.502800e-03	-5.27278e-20	2.842001e-11	3.040421e-08	
758	7.512800e-03	-3.70577e-21	2.814210e-11	2.980215e-08	
759	7.522800e-03	1.756535e-19	2.787992e-11	2.921201e-08	
760	7.532800e-03	-9.56088e-20	2.757552e-11	2.863355e-08	
761	7.542800e-03	4.489275e-20	2.731512e-11	2.806655e-08	
762	7.552800e-03	-1.18902e-19	2.702703e-11	2.751078e-08	
763	7.562800e-03	4.499863e-20	2.677441e-11	2.696601e-08	
764	7.572800e-03	1.504542e-19	2.651849e-11	2.643203e-08	
765	7.582800e-03	-4.06576e-20	2.623561e-11	2.590862e-08	
766	7.592800e-03	4.679857e-20	2.598326e-11	2.539558e-08	
767	7.602800e-03	-3.67401e-20	2.571641e-11	2.489270e-08	
768	7.612800e-03	1.390193e-19	2.547801e-11	2.439977e-08	
769	7.622800e-03	1.505601e-19	2.522565e-11	2.391661e-08	
770	7.632800e-03	-7.88799e-20	2.495182e-11	2.344301e-08	
771	7.642800e-03	-8.23740e-20	2.470319e-11	2.297880e-08	
772	7.652800e-03	-1.25784e-19	2.445307e-11	2.252377e-08	
773	7.662800e-03	-8.97855e-20	2.421334e-11	2.207776e-08	
774	7.672800e-03	7.676236e-20	2.398898e-11	2.164057e-08	
775	7.682800e-03	2.752857e-21	2.374292e-11	2.121205e-08	
776	7.692800e-03	3.504599e-20	2.350989e-11	2.079201e-08	
777	7.702800e-03	6.596269e-20	2.327903e-11	2.038028e-08	
778	7.712800e-03	-3.80106e-20	2.303705e-11	1.997671e-08	
779	7.722800e-03	-1.16361e-19	2.280003e-11	1.958113e-08	
780	7.732800e-03	7.845643e-20	2.259255e-11	1.919339e-08	
781	7.742800e-03	6.448038e-20	2.236636e-11	1.881332e-08	
782	7.752800e-03	8.491505e-20	2.214584e-11	1.844078e-08	
783	7.762800e-03	3.419896e-20	2.192044e-11	1.807562e-08	
784	7.772800e-03	-4.76456e-20	2.169418e-11	1.771768e-08	
785	7.782800e-03	8.787967e-21	2.148394e-11	1.736684e-08	
786	7.792800e-03	-5.20925e-20	2.126411e-11	1.702294e-08	
787	7.802800e-03	-6.78685e-20	2.105095e-11	1.668585e-08	
788	7.812800e-03	-2.21287e-20	2.084604e-11	1.635544e-08	
789	7.822800e-03	-4.12929e-21	2.064041e-11	1.603157e-08	
790	7.832800e-03	4.552802e-21	2.043590e-11	1.571411e-08	
791	7.842800e-03	7.062137e-20	2.023913e-11	1.540294e-08	
792	7.852800e-03	9.232659e-20	2.003990e-11	1.509793e-08	
793	7.862800e-03	3.102258e-20	1.983440e-11	1.479896e-08	
794	7.872800e-03	6.257456e-20	1.964019e-11	1.450592e-08	
795	7.882800e-03	-4.41516e-20	1.943414e-11	1.421867e-08	
796	7.892800e-03	9.015607e-20	1.925413e-11	1.393711e-08	
797	7.902800e-03	-3.55754e-20	1.905004e-11	1.366113e-08	
798	7.912800e-03	-9.93146e-20	1.885414e-11	1.339061e-08	
799	7.922800e-03	1.056674e-19	1.868693e-11	1.312545e-08	
800	7.932800e-03	-7.93035e-20	1.848259e-11	1.286554e-08	
801	7.942800e-03	-8.32210e-20	1.829829e-11	1.261078e-08	
802	7.952800e-03	6.230986e-20	1.813070e-11	1.236106e-08	
803	7.962800e-03	2.864030e-20	1.794695e-11	1.211629e-08	
804	7.972800e-03	6.596269e-20	1.777208e-11	1.187636e-08	
805	7.982800e-03	-9.17972e-20	1.757955e-11	1.164118e-08	
806	7.992800e-03	8.539151e-20	1.742226e-11	1.141067e-08	
807	8.002800e-03	1.297019e-20	1.724170e-11	1.118471e-08	
808	8.012800e-03	-9.72500e-20	1.705917e-11	1.096323e-08	

Index   time            v(out1)         v(out2)         v(n2)           
--------------------------------------------------------------------------------
809	8.022800e-03	8.062695e-20	1.690713e-11	1.074614e-08	
810	8.032800e-03	-1.95876e-21	1.673068e-11	1.053334e-08	
811	8.042800e-03	-9.05266e-21	1.656350e-11	1.032476e-08	
812	8.052800e-03	-1.92171e-20	1.639768e-11	1.012031e-08	
813	8.062800e-03	-2.99109e-20	1.623345e-11	9.919910e-09	
814	8.072800e-03	-4.10282e-20	1.607082e-11	9.723476e-09	
815	8.082800e-03	-5.16161e-20	1.590986e-11	9.530932e-09	
816	8.092800e-03	2.636390e-20	1.575931e-11	9.342201e-09	
817	8.102800e-03	4.108110e-20	1.560396e-11	9.157207e-09	
818	8.112800e-03	1.349959e-20	1.544596e-11	8.975876e-09	
819	8.122800e-03	-3.17637e-21	1.529061e-11	8.798136e-09	
820	8.132800e-03	-1.53525e-20	1.513725e-11	8.623916e-09	
821	8.142800e-03	6.405687e-21	1.498879e-11	8.453145e-09	
822	8.152800e-03	-1.74171e-20	1.483728e-11	8.285756e-09	
823	8.162800e-03	6.882143e-21	1.469207e-11	8.121682e-09	
824	8.172800e-03	4.870439e-21	1.454568e-11	7.960856e-09	
825	8.182800e-03	3.404014e-20	1.440384e-11	7.803215e-09	
826	8.192800e-03	-5.37337e-20	1.425179e-11	7.648696e-09	
827	8.202800e-03	-3.77988e-20	1.411157e-11	7.497237e-09	
828	8.212800e-03	4.677210e-20	1.397957e-11	7.348777e-09	
829	8.222800e-03	-2.36110e-20	1.383346e-11	7.203257e-09	
830	8.232800e-03	-5.06632e-20	1.369313e-11	7.060618e-09	
831	8.242800e-03	-5.39984e-21	1.356138e-11	6.920804e-09	
832	8.252800e-03	1.217610e-21	1.342710e-11	6.783758e-09	
833	8.262800e-03	-2.13611e-20	1.329125e-11	6.649426e-09	
834	8.272800e-03	-1.58819e-22	1.316111e-11	6.517754e-09	
835	8.282800e-03	-4.13458e-20	1.302605e-11	6.388690e-09	
836	8.292800e-03	1.831709e-20	1.290238e-11	6.262181e-09	
837	8.302800e-03	-3.94664e-20	1.276825e-11	6.138178e-09	
838	8.312800e-03	-2.24993e-20	1.264289e-11	6.016629e-09	
839	8.322800e-03	-8.33798e-21	1.251850e-11	5.897488e-09	
840	8.332800e-03	1.567011e-20	1.239632e-11	5.780706e-09	
841	8.342800e-03	4.663975e-20	1.227606e-11	5.666237e-09	
842	8.352800e-03	3.213431e-20	1.215246e-11	5.554034e-09	
843	8.362800e-03	-8.78797e-21	1.202747e-11	5.444053e-09	
844	8.372800e-03	4.084287e-20	1.191273e-11	5.336250e-09	
845	8.382800e-03	-2.04347e-20	1.178810e-11	5.230582e-09	
846	8.392800e-03	-4.00223e-20	1.166886e-11	5.127006e-09	
847	8.402800e-03	-3.20284e-20	1.155355e-11	5.025481e-09	
848	8.412800e-03	4.579272e-20	1.144633e-11	4.925967e-09	
849	8.422800e-03	1.365841e-20	1.132924e-11	4.828423e-09	
850	8.432800e-03	8.576209e-21	1.121600e-11	4.732811e-09	
851	8.442800e-03	-2.28964e-20	1.110127e-11	4.639092e-09	
852	8.452800e-03	1.747005e-21	1.099326e-11	4.547228e-09	
853	8.462800e-03	2.051408e-20	1.088574e-11	4.457184e-09	
854	8.472800e-03	-8.99973e-21	1.077449e-11	4.368923e-09	
855	8.482800e-03	-1.77877e-20	1.066641e-11	4.282410e-09	
856	8.492800e-03	-2.30022e-20	1.055976e-11	4.197610e-09	
857	8.502800e-03	-1.96935e-20	1.045501e-11	4.114489e-09	
858	8.512800e-03	-6.98802e-21	1.035225e-11	4.033014e-09	
859	8.522800e-03	3.732239e-21	1.025031e-11	3.953152e-09	
860	8.532800e-03	-3.01755e-21	1.014764e-11	3.874872e-09	
861	8.542800e-03	-2.15464e-20	1.004483e-11	3.798142e-09	
862	8.552800e-03	-2.70256e-20	9.944332e-12	3.722931e-09	
863	8.562800e-03	6.935082e-21	9.848763e-12	3.649209e-09	
864	8.572800e-03	1.809209e-20	9.751875e-12	3.576948e-09	
865	8.582800e-03	-1.57892e-20	9.651471e-12	3.506117e-09	
866	8.592800e-03	9.237953e-21	9.557926e-12	3.436689e-09	

Index   time            v(out1)         v(out2)         v(n2)           
--------------------------------------------------------------------------------
867	8.602800e-03	-1.10379e-20	9.460805e-12	3.368636e-09	
868	8.612800e-03	-2.44316e-20	9.365335e-12	3.301930e-09	
869	8.622800e-03	6.392452e-21	9.275215e-12	3.236545e-09	
870	8.632800e-03	-2.35316e-20	9.179946e-12	3.172455e-09	
871	8.642800e-03	-2.59801e-20	9.088360e-12	3.109635e-09	
872	8.652800e-03	5.968935e-21	9.001108e-12	3.048058e-09	
873	8.662800e-03	-2.91168e-21	8.910661e-12	2.987700e-09	
874	8.672800e-03	-7.53065e-21	8.821538e-12	2.928538e-09	
875	8.682800e-03	1.568334e-20	8.736071e-12	2.870547e-09	
876	8.692800e-03	-1.71524e-20	8.645878e-12	2.813704e-09	
877	8.702800e-03	2.077878e-20	8.563623e-12	2.757987e-09	
878	8.712800e-03	1.004528e-20	8.477345e-12	2.703374e-09	
879	8.722800e-03	2.216844e-20	8.394200e-12	2.649842e-09	
880	8.732800e-03	-2.01567e-20	8.306464e-12	2.597370e-09	
881	8.742800e-03	1.261285e-20	8.227073e-12	2.545936e-09	
882	8.752800e-03	-2.58213e-20	8.141388e-12	2.495522e-09	
883	8.762800e-03	-1.07070e-20	8.061883e-12	2.446106e-09	
884	8.772800e-03	1.311578e-20	7.984035e-12	2.397668e-09	
885	8.782800e-03	-7.87476e-21	7.902504e-12	2.350189e-09	
886	8.792800e-03	-1.06011e-20	7.823600e-12	2.303651e-09	
887	8.802800e-03	6.339512e-21	7.747439e-12	2.258034e-09	
888	8.812800e-03	1.340694e-20	7.671054e-12	2.213321e-09	
889	8.822800e-03	5.029258e-21	7.593891e-12	2.169492e-09	
890	8.832800e-03	-1.28643e-20	7.516549e-12	2.126532e-09	
891	8.842800e-03	7.014492e-22	7.443108e-12	2.084423e-09	
892	8.852800e-03	4.605742e-21	7.369435e-12	2.043147e-09	
893	8.862800e-03	-5.06896e-21	7.295145e-12	2.002689e-09	
894	8.872800e-03	9.807053e-21	7.224037e-12	1.963031e-09	
895	8.882800e-03	7.067431e-21	7.151883e-12	1.924159e-09	
896	8.892800e-03	-3.05726e-21	7.079713e-12	1.886057e-09	
897	8.902800e-03	6.154224e-21	7.010184e-12	1.848710e-09	
898	8.912800e-03	-7.70932e-21	6.939052e-12	1.812101e-09	
899	8.922800e-03	9.535738e-21	6.871723e-12	1.776218e-09	
900	8.932800e-03	-1.05879e-20	6.801345e-12	1.741046e-09	
901	8.942800e-03	-4.52633e-21	6.734273e-12	1.706570e-09	
902	8.952800e-03	-9.54236e-21	6.666766e-12	1.672776e-09	
903	8.962800e-03	-1.14019e-20	6.600245e-12	1.639652e-09	
904	8.972800e-03	-3.42784e-21	6.535364e-12	1.607183e-09	
905	8.982800e-03	-9.74750e-21	6.469707e-12	1.575358e-09	
906	8.992800e-03	-6.73656e-21	6.405632e-12	1.544163e-09	
907	9.002800e-03	3.513863e-21	6.342914e-12	1.513585e-09	
908	9.012800e-03	-1.19776e-20	6.278259e-12	1.483613e-09	
909	9.022800e-03	1.780093e-21	6.217158e-12	1.454235e-09	
910	9.032800e-03	-1.18518e-20	6.153939e-12	1.425438e-09	
911	9.042800e-03	-1.31092e-20	6.092581e-12	1.397212e-09	
912	9.052800e-03	1.336062e-20	6.034592e-12	1.369544e-09	
913	9.062800e-03	-8.82105e-21	5.972339e-12	1.342424e-09	
914	9.072800e-03	5.757177e-22	5.913848e-12	1.315842e-09	
915	9.082800e-03	2.977850e-21	5.855242e-12	1.289785e-09	
916	9.092800e-03	-9.16516e-21	5.795773e-12	1.264245e-09	
917	9.102800e-03	-9.69456e-21	5.738051e-12	1.239211e-09	
918	9.112800e-03	5.863056e-21	5.682504e-12	1.214672e-09	
919	9.122800e-03	-7.01449e-22	5.625308e-12	1.190619e-09	
920	9.132800e-03	4.632211e-21	5.569866e-12	1.167042e-09	
921	9.142800e-03	-4.72486e-21	5.513513e-12	1.143932e-09	
922	9.152800e-03	-5.34028e-21	5.458591e-12	1.121280e-09	
923	9.162800e-03	-2.79256e-21	5.404530e-12	1.099077e-09	
924	9.172800e-03	-4.89029e-21	5.350545e-12	1.077313e-09	

Index   time            v(out1)         v(out2)         v(n2)           
--------------------------------------------------------------------------------
925	9.182800e-03	1.952146e-21	5.297987e-12	1.055980e-09	
926	9.192800e-03	-3.04402e-21	5.244773e-12	1.035069e-09	
927	9.202800e-03	4.440306e-21	5.193331e-12	1.014573e-09	
928	9.212800e-03	5.221164e-21	5.141734e-12	9.944825e-10	
929	9.222800e-03	-4.91676e-21	5.089564e-12	9.747898e-10	
930	9.232800e-03	-5.41307e-21	5.038872e-12	9.554870e-10	
931	9.242800e-03	2.646978e-23	4.989275e-12	9.365665e-10	
932	9.252800e-03	-5.74394e-21	4.939056e-12	9.180206e-10	
933	9.262800e-03	3.338501e-21	4.890815e-12	8.998420e-10	
934	9.272800e-03	-3.15321e-21	4.841505e-12	8.820233e-10	
935	9.282800e-03	4.493245e-21	4.794091e-12	8.645575e-10	
936	9.292800e-03	-5.28072e-21	4.745416e-12	8.474376e-10	
937	9.302800e-03	-5.00941e-21	4.698225e-12	8.306566e-10	
938	9.312800e-03	-3.43445e-21	4.651633e-12	8.142080e-10	
939	9.322800e-03	-2.31611e-23	4.605688e-12	7.980850e-10	
940	9.332800e-03	1.657670e-21	4.560027e-12	7.822814e-10	
941	9.342800e-03	-3.27233e-21	4.514164e-12	7.667907e-10	
942	9.352800e-03	4.334426e-21	4.470003e-12	7.516067e-10	
943	9.362800e-03	-6.31304e-21	4.424466e-12	7.367234e-10	
944	9.372800e-03	-4.07304e-21	4.380665e-12	7.221348e-10	
945	9.382800e-03	2.074569e-21	4.337688e-12	7.078351e-10	
946	9.392800e-03	2.349193e-22	4.294343e-12	6.938186e-10	
947	9.402800e-03	-2.95469e-21	4.251296e-12	6.800796e-10	
948	9.412800e-03	4.890292e-21	4.209775e-12	6.666127e-10	
949	9.422800e-03	-5.46270e-21	4.166857e-12	6.534124e-10	
950	9.432800e-03	7.279189e-22	4.126012e-12	6.404736e-10	
951	9.442800e-03	-5.12852e-22	4.084833e-12	6.277909e-10	
952	9.452800e-03	6.286573e-23	4.044246e-12	6.153594e-10	
953	9.462800e-03	-2.83558e-21	4.003716e-12	6.031741e-10	
954	9.472800e-03	-1.02240e-21	3.964058e-12	5.912300e-10	
955	9.482800e-03	3.937380e-22	3.924756e-12	5.795225e-10	
956	9.492800e-03	-3.08042e-21	3.885358e-12	5.680468e-10	
957	9.502800e-03	1.058791e-22	3.847015e-12	5.567984e-10	
958	9.512800e-03	4.466775e-22	3.808770e-12	5.457726e-10	
959	9.522800e-03	-2.19368e-21	3.770609e-12	5.349653e-10	
960	9.532800e-03	3.176374e-22	3.733340e-12	5.243719e-10	
961	9.542800e-03	-2.47823e-21	3.695914e-12	5.139883e-10	
962	9.552800e-03	9.595295e-23	3.659395e-12	5.038103e-10	
963	9.562800e-03	2.888515e-21	3.623261e-12	4.938339e-10	
964	9.572800e-03	8.536504e-22	3.587006e-12	4.840550e-10	
965	9.582800e-03	-2.59404e-21	3.550972e-12	4.744697e-10	
966	9.592800e-03	6.352747e-22	3.515960e-12	4.650743e-10	
967	9.602800e-03	-2.18707e-21	3.480695e-12	4.558649e-10	
968	9.612800e-03	2.845501e-21	3.446562e-12	4.468379e-10	
969	9.622800e-03	2.342575e-21	3.412217e-12	4.379896e-10	
970	9.632800e-03	3.197880e-21	3.378350e-12	4.293165e-10	
971	9.642800e-03	8.040196e-22	3.344496e-12	4.208152e-10	
972	9.652800e-03	1.457492e-21	3.311283e-12	4.124822e-10	
973	9.662800e-03	1.282130e-21	3.278317e-12	4.043143e-10	
974	9.672800e-03	3.204498e-21	3.245889e-12	3.963081e-10	
975	9.682800e-03	-4.59912e-22	3.213227e-12	3.884604e-10	
976	9.692800e-03	-2.97785e-22	3.181270e-12	3.807681e-10	
977	9.702800e-03	2.101039e-22	3.149666e-12	3.732281e-10	
978	9.712800e-03	3.358353e-22	3.118339e-12	3.658375e-10	
979	9.722800e-03	-3.97047e-23	3.087273e-12	3.585932e-10	
980	9.732800e-03	2.152324e-21	3.056772e-12	3.514923e-10	
981	9.742800e-03	3.211115e-21	3.026462e-12	3.445321e-10	
982	9.752800e-03	-2.15232e-21	2.995814e-12	3.377096e-10	

Index   time            v(out1)         v(out2)         v(n2)           
--------------------------------------------------------------------------------
983	9.762800e-03	1.513741e-21	2.966370e-12	3.310223e-10	
984	9.772800e-03	-2.26647e-21	2.936478e-12	3.244674e-10	
985	9.782800e-03	-2.81241e-22	2.907457e-12	3.180423e-10	
986	9.792800e-03	2.005086e-21	2.878754e-12	3.117445e-10	
987	9.802800e-03	1.799945e-21	2.850089e-12	3.055713e-10	
988	9.812800e-03	-1.10180e-21	2.821442e-12	2.995204e-10	
989	9.822800e-03	1.409516e-21	2.793617e-12	2.935893e-10	
990	9.832800e-03	-1.48893e-21	2.765532e-12	2.877756e-10	
991	9.842800e-03	-7.61006e-23	2.738155e-12	2.820771e-10	
992	9.852800e-03	1.085261e-21	2.711025e-12	2.764914e-10	
993	9.862800e-03	1.247388e-21	2.684066e-12	2.710164e-10	
994	9.872800e-03	-1.28875e-21	2.657106e-12	2.656497e-10	
995	9.882800e-03	-1.32845e-21	2.630663e-12	2.603893e-10	
996	9.892800e-03	9.793818e-22	2.604717e-12	2.552331e-10	
997	9.902800e-03	4.499863e-22	2.578747e-12	2.501790e-10	
998	9.912800e-03	6.286573e-22	2.553106e-12	2.452249e-10	
999	9.922800e-03	-7.08067e-22	2.527569e-12	2.403690e-10	
1000	9.932800e-03	7.643149e-22	2.502565e-12	2.356092e-10	
1001	9.942800e-03	8.404155e-22	2.477672e-12	2.309437e-10	
1002	9.952800e-03	7.353636e-22	2.453008e-12	2.263705e-10	
1003	9.962800e-03	-6.99795e-22	2.428457e-12	2.218879e-10	
1004	9.972800e-03	1.142336e-21	2.404476e-12	2.174941e-10	
1005	9.982800e-03	-1.08857e-21	2.380329e-12	2.131873e-10	
1006	9.992800e-03	-1.12414e-21	2.356641e-12	2.089658e-10	
1007	1.000280e-02	9.065900e-22	2.333394e-12	2.048278e-10	
1008	1.001280e-02	1.231672e-21	2.310208e-12	2.007718e-10	
1009	1.002280e-02	1.968690e-22	2.287118e-12	1.967962e-10	
1010	1.003280e-02	1.364848e-22	2.264355e-12	1.928992e-10	
1011	1.004280e-02	-9.76073e-23	2.241801e-12	1.890794e-10	
1012	1.005280e-02	4.905181e-22	2.219553e-12	1.853353e-10	
1013	1.006280e-02	-6.34448e-22	2.197356e-12	1.816653e-10	
1014	1.007280e-02	1.092706e-21	2.175663e-12	1.780679e-10	
1015	1.008280e-02	8.710212e-22	2.153993e-12	1.745418e-10	
1016	1.009280e-02	-8.88392e-22	2.132385e-12	1.710856e-10	
1017	1.010280e-02	-1.89424e-22	2.111237e-12	1.676977e-10	
1018	1.011280e-02	-2.60562e-22	2.090222e-12	1.643770e-10	
1019	1.012280e-02	4.268252e-22	2.069492e-12	1.611220e-10	
1020	1.013280e-02	1.348304e-22	2.048871e-12	1.579315e-10	
1021	1.014280e-02	1.317699e-21	2.028602e-12	1.548041e-10	
1022	1.015280e-02	-6.65880e-22	2.008220e-12	1.517387e-10	
1023	1.016280e-02	4.251708e-22	1.988346e-12	1.487340e-10	
1024	1.017280e-02	3.316994e-22	1.968552e-12	1.457887e-10	
1025	1.018280e-02	-3.01094e-22	1.948902e-12	1.429018e-10	
1026	1.019280e-02	6.046690e-22	1.929600e-12	1.400721e-10	
1027	1.020280e-02	-3.47416e-23	1.910336e-12	1.372984e-10	
1028	1.021280e-02	1.629546e-22	1.891348e-12	1.345796e-10	
1029	1.022280e-02	-7.93266e-22	1.872433e-12	1.319147e-10	
1030	1.023280e-02	9.926167e-23	1.853891e-12	1.293025e-10	
1031	1.024280e-02	-1.83634e-22	1.835416e-12	1.267420e-10	
1032	1.025280e-02	5.881254e-22	1.817230e-12	1.242323e-10	
1033	1.026280e-02	6.534727e-22	1.799154e-12	1.217722e-10	
1034	1.027280e-02	-4.09454e-22	1.781147e-12	1.193609e-10	
1035	1.028280e-02	2.580804e-22	1.763490e-12	1.169973e-10	
1036	1.029280e-02	5.434577e-22	1.745971e-12	1.146806e-10	
1037	1.030280e-02	1.509605e-22	1.728559e-12	1.124097e-10	
1038	1.031280e-02	5.471800e-22	1.711399e-12	1.101837e-10	
1039	1.032280e-02	-7.63901e-22	1.694240e-12	1.080019e-10	
1040	1.033280e-02	-7.96161e-22	1.677379e-12	1.058632e-10	

Index   time            v(out1)         v(out2)         v(n2)           
--------------------------------------------------------------------------------
1041	1.034280e-02	-6.00120e-22	1.660708e-12	1.037669e-10	
1042	1.035280e-02	-5.87712e-22	1.644185e-12	1.017121e-10	
1043	1.036280e-02	-8.28835e-22	1.627801e-12	9.969802e-11	
1044	1.037280e-02	-3.48243e-22	1.611651e-12	9.772380e-11	
1045	1.038280e-02	5.033394e-22	1.595700e-12	9.578868e-11	
1046	1.039280e-02	-5.43871e-22	1.579718e-12	9.389187e-11	
1047	1.040280e-02	-4.70252e-22	1.564007e-12	9.203263e-11	
1048	1.041280e-02	-9.51258e-23	1.548482e-12	9.021020e-11	
1049	1.042280e-02	1.455838e-22	1.533098e-12	8.842386e-11	
1050	1.043280e-02	6.853191e-22	1.517897e-12	8.667289e-11	
1051	1.044280e-02	1.857020e-22	1.502744e-12	8.495660e-11	
1052	1.045280e-02	3.101927e-22	1.487804e-12	8.327429e-11	
1053	1.046280e-02	-1.37726e-22	1.472955e-12	8.162529e-11	
1054	1.047280e-02	5.111976e-22	1.458363e-12	8.000895e-11	
1055	1.048280e-02	7.076530e-22	1.443872e-12	7.842461e-11	
1056	1.049280e-02	-8.15600e-22	1.429353e-12	7.687165e-11	
1057	1.050280e-02	-1.04225e-22	1.415202e-12	7.534944e-11	
1058	1.051280e-02	3.503110e-22	1.401165e-12	7.385737e-11	
1059	1.052280e-02	2.477406e-22	1.387213e-12	7.239485e-11	
1060	1.053280e-02	1.265586e-22	1.373398e-12	7.096129e-11	
1061	1.054280e-02	6.658804e-23	1.359726e-12	6.955611e-11	
1062	1.055280e-02	-1.16219e-22	1.346179e-12	6.817877e-11	
1063	1.056280e-02	-7.98229e-23	1.332787e-12	6.682869e-11	
1064	1.057280e-02	-3.42866e-22	1.319500e-12	6.550535e-11	
1065	1.058280e-02	1.079471e-22	1.306415e-12	6.420821e-11	
1066	1.059280e-02	3.800895e-22	1.293443e-12	6.293676e-11	
1067	1.060280e-02	2.010049e-22	1.280555e-12	6.169049e-11	
1068	1.061280e-02	3.933244e-22	1.267832e-12	6.046890e-11	
1069	1.061405e-02	1.261450e-22	1.266223e-12	6.031810e-11	
1070	1.061655e-02	-2.08863e-22	1.263028e-12	6.001726e-11	
1071	1.062155e-02	2.291290e-22	1.256772e-12	5.942008e-11	
1072	1.063155e-02	2.849637e-22	1.244273e-12	5.824344e-11	
1073	1.064155e-02	1.170461e-22	1.231875e-12	5.709011e-11	
1074	1.065155e-02	-3.35008e-23	1.219603e-12	5.595961e-11	
1075	1.066155e-02	-1.60059e-22	1.207455e-12	5.485150e-11	
1076	1.067155e-02	-1.53856e-22	1.195441e-12	5.376533e-11	
1077	1.068155e-02	-3.68716e-22	1.183524e-12	5.270067e-11	
1078	1.069155e-02	1.191140e-22	1.171797e-12	5.165709e-11	
1079	1.070155e-02	-3.45348e-23	1.160122e-12	5.063418e-11	
1080	1.071155e-02	0.000000e+00	1.148582e-12	4.963152e-11	
1081	1.072155e-02	-4.20828e-22	1.137111e-12	4.864872e-11	
1082	1.073155e-02	3.240480e-22	1.125871e-12	4.768538e-11	
1083	1.074155e-02	-2.90547e-22	1.114607e-12	4.674111e-11	
1084	1.075155e-02	1.344168e-22	1.103558e-12	4.581555e-11	
1085	1.076155e-02	-2.27475e-23	1.092562e-12	4.490831e-11	
1086	1.077155e-02	1.943874e-22	1.081712e-12	4.401904e-11	
1087	1.078155e-02	9.926167e-23	1.070940e-12	4.314737e-11	
1088	1.079155e-02	-1.34417e-23	1.060272e-12	4.229297e-11	
1089	1.080155e-02	-3.84846e-22	1.049685e-12	4.145548e-11	
1090	1.081155e-02	-1.00296e-22	1.039269e-12	4.063458e-11	
1091	1.082155e-02	2.367805e-22	1.028962e-12	3.982994e-11	
1092	1.083155e-02	4.024234e-22	1.018740e-12	3.904123e-11	
1093	1.084155e-02	-1.01536e-22	1.008553e-12	3.826813e-11	
1094	1.085155e-02	-3.35008e-23	9.985243e-13	3.751035e-11	
1095	1.086155e-02	-2.01832e-22	9.885720e-13	3.676757e-11	
1096	1.087155e-02	-1.18907e-22	9.787437e-13	3.603950e-11	
1097	1.087280e-02	-3.72231e-23	9.775299e-13	3.594962e-11	
1098	1.087530e-02	1.067063e-22	9.751035e-13	3.577032e-11	

Index   time            v(out1)         v(out2)         v(n2)           
--------------------------------------------------------------------------------
1099	1.088030e-02	1.048451e-22	9.702400e-13	3.541440e-11	
1100	1.089030e-02	1.633682e-23	9.605771e-13	3.471313e-11	
1101	1.090030e-02	-7.23783e-23	9.510102e-13	3.402574e-11	
1102	1.091030e-02	1.081539e-22	9.415654e-13	3.335196e-11	
1103	1.092030e-02	-1.48893e-22	9.321710e-13	3.269153e-11	
1104	1.093030e-02	-2.08863e-22	9.228897e-13	3.204417e-11	
1105	1.094030e-02	-1.26145e-23	9.137263e-13	3.140963e-11	
1106	1.095030e-02	1.625410e-22	9.046519e-13	3.078766e-11	
1107	1.096030e-02	2.957171e-23	8.956372e-13	3.017800e-11	
1108	1.097030e-02	2.016253e-22	8.867425e-13	2.958042e-11	
1109	1.098030e-02	1.435158e-22	8.779134e-13	2.899467e-11	
1110	1.099030e-02	1.773268e-22	8.691813e-13	2.842051e-11	
1111	1.100030e-02	-9.79175e-23	8.605053e-13	2.785773e-11	
1112	1.101030e-02	-1.84565e-22	8.519345e-13	2.730609e-11	
1113	1.102030e-02	9.264423e-23	8.434851e-13	2.676538e-11	
1114	1.103030e-02	-5.02512e-23	8.350780e-13	2.623537e-11	
1115	1.104030e-02	-6.02808e-23	8.267678e-13	2.571586e-11	
1116	1.105030e-02	-1.53132e-22	8.185320e-13	2.520663e-11	
1117	1.106030e-02	1.395867e-22	8.104165e-13	2.470749e-11	
1118	1.107030e-02	-6.88628e-23	8.023319e-13	2.421824e-11	
1119	1.108030e-02	-6.23487e-23	7.943492e-13	2.373867e-11	
1120	1.109030e-02	-1.40621e-22	7.864374e-13	2.326859e-11	
1121	1.110030e-02	6.317592e-23	7.786324e-13	2.280783e-11	
1122	1.111030e-02	1.317285e-22	7.708917e-13	2.235619e-11	
1123	1.112030e-02	1.791880e-22	7.632258e-13	2.191349e-11	
1124	1.113030e-02	-2.08863e-22	7.555929e-13	2.147956e-11	
1125	1.114030e-02	-6.70016e-23	7.480887e-13	2.105422e-11	
1126	1.115030e-02	1.212854e-22	7.406638e-13	2.063731e-11	
1127	1.116030e-02	6.948317e-23	7.332888e-13	2.022865e-11	
1128	1.117030e-02	8.850833e-23	7.259943e-13	1.982808e-11	
1129	1.118030e-02	-1.77844e-23	7.187599e-13	1.943545e-11	
1130	1.119030e-02	4.001486e-23	7.116138e-13	1.905059e-11	
1131	1.120030e-02	7.858216e-23	7.045369e-13	1.867335e-11	
1132	1.121030e-02	-8.32350e-23	6.975105e-13	1.830358e-11	
1133	1.122030e-02	-8.34418e-23	6.905701e-13	1.794113e-11	
1134	1.123030e-02	-1.04949e-22	6.836966e-13	1.758586e-11	
1135	1.124030e-02	-4.34270e-24	6.769037e-13	1.723763e-11	
1136	1.125030e-02	2.688337e-24	6.701690e-13	1.689629e-11	
1137	1.126030e-02	2.274747e-24	6.635006e-13	1.656171e-11	
1138	1.127030e-02	6.514047e-24	6.568990e-13	1.623375e-11	
1139	1.128030e-02	3.732653e-23	6.503658e-13	1.591229e-11	
1140	1.129030e-02	8.964570e-23	6.438997e-13	1.559720e-11	
1141	1.130030e-02	-6.01774e-23	6.374778e-13	1.528834e-11	
1142	1.131030e-02	1.416547e-23	6.311422e-13	1.498560e-11	
1143	1.132030e-02	4.787308e-23	6.248655e-13	1.468886e-11	
1144	1.133030e-02	-5.33531e-23	6.186379e-13	1.439799e-11	
1145	1.134030e-02	7.946104e-23	6.124955e-13	1.411288e-11	
1146	1.135030e-02	1.313149e-23	6.063944e-13	1.383342e-11	
1147	1.136030e-02	-2.18686e-23	6.003571e-13	1.355949e-11	
1148	1.137030e-02	-2.30060e-23	5.943833e-13	1.329098e-11	
1149	1.138030e-02	-3.87741e-23	5.884675e-13	1.302780e-11	
1150	1.139030e-02	-7.53768e-23	5.826084e-13	1.276982e-11	
1151	1.140030e-02	-1.37519e-23	5.768175e-13	1.251695e-11	
1152	1.141030e-02	-9.82277e-25	5.710793e-13	1.226909e-11	
1153	1.142030e-02	1.041731e-22	5.654073e-13	1.202614e-11	
1154	1.143030e-02	9.166195e-23	5.597802e-13	1.178800e-11	
1155	1.144030e-02	2.791735e-23	5.542039e-13	1.155457e-11	
1156	1.144155e-02	-2.99853e-24	5.535089e-13	1.152576e-11	

Index   time            v(out1)         v(out2)         v(n2)           
--------------------------------------------------------------------------------
1157	1.144405e-02	-6.15216e-23	5.521210e-13	1.146827e-11	
1158	1.144905e-02	-3.85673e-23	5.493696e-13	1.135416e-11	
1159	1.145905e-02	5.309466e-23	5.439123e-13	1.112933e-11	
1160	1.146905e-02	1.835307e-23	5.384968e-13	1.090894e-11	
1161	1.147905e-02	-8.22011e-23	5.331286e-13	1.069292e-11	
1162	1.148905e-02	7.356738e-23	5.278394e-13	1.048118e-11	
1163	1.149905e-02	-1.54579e-23	5.225784e-13	1.027363e-11	
1164	1.150905e-02	-8.16841e-23	5.173720e-13	1.007020e-11	
1165	1.151905e-02	-7.42912e-23	5.122247e-13	9.870787e-12	
1166	1.152905e-02	4.104884e-23	5.071395e-13	9.675326e-12	
1167	1.153905e-02	-4.38406e-23	5.020849e-13	9.483735e-12	
1168	1.154905e-02	1.137373e-23	4.970945e-13	9.295938e-12	
1169	1.155905e-02	2.683167e-23	4.921498e-13	9.111860e-12	
1170	1.156905e-02	-1.88184e-23	4.872482e-13	8.931427e-12	
1171	1.157905e-02	-3.68095e-23	4.823982e-13	8.754567e-12	
1172	1.158905e-02	-1.24077e-23	4.776007e-13	8.581210e-12	
1173	1.159905e-02	-1.45274e-23	4.728482e-13	8.411285e-12	
1174	1.160905e-02	-3.59824e-23	4.681411e-13	8.244725e-12	
1175	1.161905e-02	-4.29100e-24	4.634861e-13	8.081463e-12	
1176	1.162905e-02	3.050229e-24	4.588751e-13	7.921434e-12	
1177	1.163905e-02	-4.80799e-24	4.543084e-13	7.764574e-12	
1178	1.164905e-02	1.928365e-23	4.497903e-13	7.610820e-12	
1179	1.165905e-02	3.613745e-23	4.453164e-13	7.460111e-12	
1180	1.166905e-02	1.307979e-23	4.408831e-13	7.312386e-12	
1181	1.167905e-02	4.875196e-23	4.364998e-13	7.167586e-12	
1182	1.168905e-02	-1.46825e-23	4.321502e-13	7.025653e-12	
1183	1.169905e-02	3.145871e-23	4.278548e-13	6.886532e-12	
1184	1.170905e-02	-4.13590e-25	4.235943e-13	6.750165e-12	
1185	1.171905e-02	6.410650e-24	4.193802e-13	6.616498e-12	
1186	1.172905e-02	3.300968e-23	4.152099e-13	6.485478e-12	
1187	1.173905e-02	-4.60119e-23	4.110706e-13	6.357053e-12	
1188	1.174905e-02	3.859315e-23	4.069887e-13	6.231171e-12	
1189	1.175905e-02	-4.87778e-23	4.029304e-13	6.107781e-12	
1190	1.176905e-02	-3.55688e-23	3.989225e-13	5.986835e-12	
1191	1.177905e-02	-3.84897e-23	3.949528e-13	5.868284e-12	
1192	1.178905e-02	3.882579e-23	3.910306e-13	5.752080e-12	
1193	1.179905e-02	2.825339e-23	3.871387e-13	5.638178e-12	
1194	1.180905e-02	4.386642e-23	3.832881e-13	5.526531e-12	
1195	1.181905e-02	8.349354e-24	3.794708e-13	5.417094e-12	
1196	1.182905e-02	1.853402e-23	3.756960e-13	5.309825e-12	
1197	1.183905e-02	-3.82054e-23	3.719520e-13	5.204680e-12	
1198	1.184905e-02	2.533241e-23	3.682574e-13	5.101617e-12	
1199	1.185905e-02	4.239301e-24	3.645910e-13	5.000595e-12	
1200	1.186905e-02	4.469360e-23	3.609673e-13	4.901573e-12	
1201	1.187905e-02	5.092331e-24	3.573716e-13	4.804512e-12	
1202	1.188905e-02	-7.75482e-25	3.538151e-13	4.709374e-12	
1203	1.189905e-02	-2.31869e-23	3.502923e-13	4.616119e-12	
1204	1.190905e-02	-1.79136e-23	3.468073e-13	4.524710e-12	
1205	1.191905e-02	1.390697e-23	3.433597e-13	4.435112e-12	
1206	1.192905e-02	-1.34417e-23	3.399404e-13	4.347288e-12	
1207	1.193905e-02	9.693523e-24	3.365603e-13	4.261203e-12	
1208	1.194905e-02	-1.92319e-23	3.332085e-13	4.176823e-12	
1209	1.195905e-02	1.943874e-23	3.298969e-13	4.094114e-12	
1210	1.196905e-02	6.824240e-24	3.266130e-13	4.013042e-12	
1211	1.197905e-02	-2.20237e-23	3.233603e-13	3.933576e-12	
1212	1.198905e-02	1.220091e-23	3.201462e-13	3.855683e-12	
1213	1.199905e-02	-1.89218e-23	3.169576e-13	3.779333e-12	
1214	1.200905e-02	-1.17098e-23	3.138045e-13	3.704495e-12	

Index   time            v(out1)         v(out2)         v(n2)           
--------------------------------------------------------------------------------
1215	1.201905e-02	-1.78232e-23	3.106814e-13	3.631138e-12	
1216	1.202905e-02	-4.40732e-24	3.075914e-13	3.559235e-12	
1217	1.203905e-02	4.407322e-24	3.045317e-13	3.488755e-12	
1218	1.204905e-02	-6.07461e-24	3.015005e-13	3.419671e-12	
1219	1.205905e-02	1.728032e-23	2.985028e-13	3.351954e-12	
1220	1.206905e-02	-1.49926e-24	2.955307e-13	3.285579e-12	
1221	1.207905e-02	1.035268e-23	2.925913e-13	3.220518e-12	
1222	1.208905e-02	8.569074e-24	2.896798e-13	3.156745e-12	
1223	1.209905e-02	-1.85857e-23	2.867947e-13	3.094236e-12	
1224	1.210905e-02	1.253696e-23	2.839441e-13	3.032964e-12	
1225	1.211905e-02	-1.89347e-23	2.811157e-13	2.972905e-12	
1226	1.212905e-02	-1.38294e-23	2.783190e-13	2.914036e-12	
1227	1.213905e-02	5.829038e-24	2.755516e-13	2.856332e-12	
1228	1.214905e-02	-7.36708e-24	2.728085e-13	2.799771e-12	
1229	1.215905e-02	-1.94129e-23	2.700928e-13	2.744330e-12	
1230	1.216905e-02	1.351923e-23	2.674086e-13	2.689987e-12	
1231	1.217905e-02	9.771071e-24	2.647474e-13	2.636720e-12	
1232	1.218905e-02	1.059825e-23	2.621132e-13	2.584507e-12	
1233	1.219905e-02	1.550964e-23	2.595056e-13	2.533329e-12	
1234	1.220905e-02	1.001664e-23	2.569229e-13	2.483164e-12	
1235	1.221905e-02	-2.27862e-23	2.543632e-13	2.433992e-12	
1236	1.222905e-02	-1.55096e-23	2.518329e-13	2.385795e-12	
1237	1.223905e-02	8.220107e-24	2.493295e-13	2.338551e-12	
1238	1.224905e-02	2.959756e-24	2.468481e-13	2.292243e-12	
1239	1.225905e-02	-1.29247e-26	2.443916e-13	2.246852e-12	
1240	1.226905e-02	-2.95976e-24	2.419595e-13	2.202360e-12	
1241	1.227905e-02	-5.53177e-24	2.395517e-13	2.158749e-12	
1242	1.228905e-02	7.328303e-24	2.371694e-13	2.116002e-12	
1243	1.229905e-02	-5.40252e-24	2.348082e-13	2.074100e-12	
1244	1.230905e-02	-4.65289e-25	2.324723e-13	2.033029e-12	
1245	1.231905e-02	1.280837e-23	2.301605e-13	1.992771e-12	
1246	1.232905e-02	-3.94203e-24	2.278687e-13	1.953310e-12	
1247	1.233905e-02	1.142543e-23	2.256029e-13	1.914631e-12	
1248	1.234905e-02	9.926167e-24	2.233579e-13	1.876717e-12	
1249	1.235905e-02	1.132203e-23	2.211356e-13	1.839555e-12	
1250	1.236905e-02	9.422104e-24	2.189350e-13	1.803128e-12	
1251	1.237905e-02	5.964748e-24	2.167562e-13	1.767422e-12	
1252	1.238905e-02	1.061118e-23	2.145999e-13	1.732424e-12	
1253	1.239905e-02	-6.93410e-24	2.124628e-13	1.698119e-12	
1254	1.240905e-02	-3.55429e-25	2.103494e-13	1.664492e-12	
1255	1.241905e-02	1.221384e-24	2.082566e-13	1.631532e-12	
1256	1.242905e-02	-6.97287e-24	2.061835e-13	1.599225e-12	
1257	1.243905e-02	-8.62724e-24	2.041318e-13	1.567557e-12	
1258	1.244905e-02	3.011454e-24	2.021018e-13	1.536516e-12	
1259	1.245905e-02	-8.44629e-24	2.000897e-13	1.506090e-12	
1260	1.246905e-02	-9.67414e-24	1.980986e-13	1.476266e-12	
1261	1.247905e-02	-7.89699e-24	1.961277e-13	1.447033e-12	
1262	1.248905e-02	-5.93244e-24	1.941764e-13	1.418379e-12	
1263	1.249905e-02	1.310564e-23	1.922461e-13	1.390293e-12	
1264	1.250905e-02	4.459020e-24	1.903324e-13	1.362762e-12	
1265	1.251905e-02	1.132850e-23	1.884392e-13	1.335777e-12	
1266	1.252905e-02	8.077936e-25	1.865632e-13	1.309326e-12	
1267	1.253905e-02	1.115401e-23	1.847078e-13	1.283398e-12	
1268	1.254905e-02	-1.09278e-23	1.828677e-13	1.257985e-12	
1269	1.255905e-02	8.491526e-24	1.810501e-13	1.233074e-12	
1270	1.256905e-02	-4.61412e-24	1.792473e-13	1.208657e-12	
1271	1.257905e-02	-5.69979e-24	1.774636e-13	1.184723e-12	
1272	1.258905e-02	-1.70606e-24	1.756982e-13	1.161263e-12	

Index   time            v(out1)         v(out2)         v(n2)           
--------------------------------------------------------------------------------
1273	1.259905e-02	-6.12631e-24	1.739495e-13	1.138268e-12	
1274	1.260905e-02	-2.11319e-24	1.722191e-13	1.115728e-12	
1275	1.261905e-02	-3.70293e-24	1.705053e-13	1.093634e-12	
1276	1.262905e-02	-2.17781e-24	1.688089e-13	1.071978e-12	
1277	1.263905e-02	1.867619e-24	1.671296e-13	1.050751e-12	
1278	1.264905e-02	-2.72065e-24	1.654662e-13	1.029944e-12	
1279	1.265905e-02	-1.85469e-24	1.638198e-13	1.009549e-12	
1280	1.266905e-02	4.362085e-24	1.621904e-13	9.895578e-13	
1281	1.267905e-02	-2.97268e-25	1.605761e-13	9.699626e-13	
1282	1.268905e-02	5.228040e-24	1.589789e-13	9.507554e-13	
1283	1.269905e-02	-4.47841e-24	1.573960e-13	9.319286e-13	
1284	1.270905e-02	6.210317e-24	1.558310e-13	9.134745e-13	
1285	1.271905e-02	-3.91295e-24	1.542794e-13	8.953859e-13	
1286	1.272905e-02	-6.10046e-24	1.527441e-13	8.776555e-13	
1287	1.273905e-02	-1.92255e-24	1.512246e-13	8.602762e-13	
1288	1.274905e-02	4.517182e-24	1.497206e-13	8.432410e-13	
1289	1.275905e-02	6.517278e-24	1.482310e-13	8.265432e-13	
1290	1.276905e-02	-1.93870e-25	1.467554e-13	8.101760e-13	
1291	1.277905e-02	-2.31998e-24	1.452949e-13	7.941329e-13	
1292	1.278905e-02	-4.65935e-24	1.438490e-13	7.784075e-13	
1293	1.279905e-02	4.782138e-25	1.424182e-13	7.629935e-13	
1294	1.280905e-02	-4.57857e-24	1.410006e-13	7.478847e-13	
1295	1.281905e-02	-5.45099e-24	1.395975e-13	7.330751e-13	
1296	1.282905e-02	-5.78380e-24	1.382084e-13	7.185588e-13	
1297	1.283905e-02	2.097032e-24	1.368340e-13	7.043299e-13	
1298	1.284905e-02	-4.85322e-24	1.354718e-13	6.903828e-13	
1299	1.285905e-02	4.426709e-24	1.341247e-13	6.767118e-13	
1300	1.286905e-02	-3.71908e-24	1.327893e-13	6.633116e-13	
1301	1.287905e-02	5.541464e-24	1.314690e-13	6.501767e-13	
1302	1.288905e-02	5.631937e-24	1.301608e-13	6.373019e-13	
1303	1.289905e-02	1.631743e-24	1.288653e-13	6.246821e-13	
1304	1.290905e-02	2.523547e-24	1.275831e-13	6.123121e-13	
1305	1.291905e-02	-4.43963e-24	1.263130e-13	6.001871e-13	
1306	1.292905e-02	1.874081e-25	1.250566e-13	5.883022e-13	
1307	1.293905e-02	-1.52835e-24	1.238121e-13	5.766527e-13	
1308	1.294905e-02	-3.02115e-24	1.225800e-13	5.652338e-13	
1309	1.295905e-02	1.169685e-24	1.213607e-13	5.540411e-13	
1310	1.296905e-02	-4.52364e-26	1.201530e-13	5.430700e-13	
1311	1.297905e-02	-1.94840e-24	1.189572e-13	5.323161e-13	
1312	1.298905e-02	3.163320e-24	1.177741e-13	5.217752e-13	
1313	1.299905e-02	-1.53158e-24	1.166018e-13	5.114430e-13	
1314	1.300905e-02	9.758146e-25	1.154418e-13	5.013154e-13	
1315	1.301905e-02	1.457260e-24	1.142932e-13	4.913884e-13	
[...]
4431	4.417905e-02	-2.56575e-46	
4432	4.418905e-02	-2.40914e-46	
4433	4.419905e-02	-1.94454e-46	
4434	4.420905e-02	-2.63622e-47	
4435	4.421905e-02	4.150094e-47	
4436	4.422905e-02	2.638833e-46	
4437	4.423905e-02	4.724320e-47	
4438	4.424905e-02	2.175537e-46	
4439	4.425905e-02	1.513871e-46	
4440	4.426905e-02	-2.09462e-46	
4441	4.427905e-02	2.249925e-46	
4442	4.428905e-02	-1.08320e-47	
4443	4.429905e-02	1.726596e-46	
4444	4.430905e-02	-1.04144e-46	
4445	4.431905e-02	1.637851e-46	
4446	4.432905e-02	7.882568e-47	
4447	4.433905e-02	1.767052e-46	
4448	4.434905e-02	1.284180e-46	
4449	4.435905e-02	-2.57358e-46	
4450	4.436905e-02	-8.15663e-47	
4451	4.437905e-02	9.996766e-47	
4452	4.438905e-02	-1.33769e-46	
4453	4.439905e-02	-9.97067e-47	
4454	4.440905e-02	1.066235e-46	
4455	4.441905e-02	2.792830e-47	
4456	4.442905e-02	-2.62839e-46	
4457	4.443905e-02	-3.14520e-47	
4458	4.444905e-02	-1.02708e-46	
4459	4.445905e-02	-2.26689e-46	
4460	4.446905e-02	6.694962e-47	
4461	4.447905e-02	-9.05712e-47	
4462	4.448905e-02	-1.43557e-48	

Index   time            v(n3)           
--------------------------------------------------------------------------------
4463	4.449905e-02	3.771626e-47	
4464	4.450905e-02	-4.88093e-47	
4465	4.451905e-02	-7.79121e-47	
4466	4.452905e-02	1.814035e-47	
4467	4.453905e-02	-1.23328e-46	
4468	4.454905e-02	-2.88418e-47	
4469	4.455905e-02	7.464948e-47	
4470	4.456905e-02	-6.08158e-47	
4471	4.457905e-02	1.044049e-48	
4472	4.458905e-02	-7.28224e-47	
4473	4.459905e-02	-8.71781e-47	
4474	4.460905e-02	-1.23850e-46	
4475	4.461905e-02	1.201961e-46	
4476	4.462905e-02	8.006549e-47	
4477	4.463905e-02	2.159876e-47	
4478	4.464905e-02	4.561188e-47	
4479	4.465905e-02	-4.95923e-47	
4480	4.466905e-02	4.143568e-47	
4481	4.467905e-02	8.117479e-47	
4482	4.468905e-02	7.047329e-47	
4483	4.469905e-02	1.152369e-46	
4484	4.470905e-02	-8.26104e-47	
4485	4.471905e-02	-1.99022e-47	
4486	4.472905e-02	7.862992e-47	
4487	4.473905e-02	6.805893e-47	
4488	4.474905e-02	1.249596e-46	
4489	4.475905e-02	8.730857e-47	
4490	4.476905e-02	1.230020e-46	
4491	4.477905e-02	7.243088e-48	
4492	4.478905e-02	-4.00654e-47	
4493	4.479905e-02	3.386633e-47	
4494	4.480905e-02	9.004920e-48	
4495	4.481905e-02	-1.98369e-47	
4496	4.482905e-02	-1.40947e-47	
4497	4.483905e-02	-4.58729e-47	
4498	4.484905e-02	4.443732e-47	
4499	4.485905e-02	6.329545e-47	
4500	4.486905e-02	-5.50083e-47	
4501	4.487905e-02	-4.44373e-47	
4502	4.488905e-02	2.929862e-47	
4503	4.489905e-02	-4.69169e-47	
4504	4.490905e-02	-3.90866e-47	
4505	4.491905e-02	-7.50410e-48	
4506	4.492905e-02	-2.39479e-47	
4507	4.493905e-02	4.300176e-47	
4508	4.494905e-02	5.543246e-47	
4509	4.495905e-02	2.910286e-47	
4510	4.496905e-02	-1.97390e-47	
4511	4.497905e-02	-5.54651e-48	
4512	4.498905e-02	1.216969e-47	
4513	4.499905e-02	-5.78468e-47	
4514	4.500905e-02	4.818937e-47	
4515	4.501905e-02	-4.01959e-47	
4516	4.502905e-02	5.262658e-47	
4517	4.503905e-02	-4.28060e-47	
4518	4.504905e-02	-2.70800e-47	
4519	4.505905e-02	1.109302e-47	
4520	4.506905e-02	-2.05547e-47	

Index   time            v(n3)           
--------------------------------------------------------------------------------
4521	4.507905e-02	-2.03263e-47	
4522	4.508905e-02	1.030998e-47	
4523	4.509905e-02	-2.35890e-47	
4524	4.510905e-02	-2.75042e-47	
4525	4.511905e-02	-9.13543e-48	
4526	4.512905e-02	-5.97065e-47	
4527	4.513905e-02	-6.30671e-47	
4528	4.514905e-02	5.122364e-48	
4529	4.515905e-02	5.154991e-48	
4530	4.516905e-02	7.243088e-48	
4531	4.517905e-02	-3.23003e-47	
4532	4.518905e-02	-3.36053e-48	
4533	4.519905e-02	-1.92496e-48	
4534	4.520905e-02	4.893978e-48	
4535	4.521905e-02	-3.20066e-47	
4536	4.522905e-02	-7.07996e-48	
4537	4.523905e-02	3.132146e-47	
4538	4.524905e-02	-6.85157e-48	
4539	4.525905e-02	-4.79610e-48	
4540	4.526905e-02	-2.21534e-47	
4541	4.527905e-02	-1.53997e-47	
4542	4.528905e-02	1.882550e-47	
4543	4.529905e-02	-1.35237e-47	
4544	4.530905e-02	2.817300e-47	
4545	4.531905e-02	-2.45678e-47	
4546	4.532905e-02	1.244702e-47	
4547	4.533905e-02	2.624804e-47	
4548	4.534905e-02	2.641117e-47	
4549	4.535905e-02	1.282222e-47	
4550	4.536905e-02	4.453520e-48	
4551	4.537905e-02	-1.94454e-47	
4552	4.538905e-02	-3.06363e-47	
4553	4.539905e-02	2.127249e-47	
4554	4.540905e-02	2.512242e-48	
4555	4.541905e-02	-6.54162e-48	
4556	4.542905e-02	-3.16477e-47	
4557	4.543905e-02	-7.34097e-49	
4558	4.544905e-02	6.052220e-48	
4559	4.545905e-02	1.536709e-47	
4560	4.546905e-02	4.861352e-48	
4561	4.547905e-02	1.499189e-47	
4562	4.548905e-02	1.776514e-47	
4563	4.549905e-02	-8.25451e-48	
4564	4.550905e-02	1.655796e-47	
4565	4.551905e-02	4.910292e-48	
4566	4.552905e-02	8.482896e-48	
4567	4.553905e-02	2.202290e-48	
4568	4.554905e-02	6.802630e-48	
4569	4.555905e-02	3.882556e-48	
4570	4.556905e-02	8.711281e-48	
4571	4.557905e-02	-1.18434e-47	
4572	4.558905e-02	-8.25451e-48	
4573	4.559905e-02	-1.56444e-47	
4574	4.560905e-02	-3.89887e-48	
4575	4.561905e-02	2.022844e-48	
4576	4.562905e-02	-1.14030e-47	
4577	4.563905e-02	1.079122e-47	
4578	4.564905e-02	1.177817e-47	

Index   time            v(n3)           
--------------------------------------------------------------------------------
4579	4.565905e-02	1.517949e-47	
4580	4.566905e-02	1.292010e-47	
4581	4.567905e-02	6.484521e-48	
4582	4.568905e-02	1.282222e-47	
4583	4.569905e-02	6.794473e-48	
4584	4.570905e-02	-1.54894e-47	
4585	4.571905e-02	1.329531e-48	
4586	4.572905e-02	-2.28386e-49	
4587	4.573905e-02	1.335240e-47	
4588	4.574905e-02	-1.01550e-47	
4589	4.575905e-02	-2.91192e-48	
4590	4.576905e-02	-8.27898e-48	
4591	4.577905e-02	-1.60767e-47	
4592	4.578905e-02	-3.47472e-48	
4593	4.579905e-02	9.828740e-48	
4594	4.580905e-02	1.063625e-47	
4595	4.581905e-02	-6.95761e-48	
4596	4.582905e-02	-2.28386e-49	
4597	4.583905e-02	2.601965e-48	
4598	4.584905e-02	9.298559e-49	
4599	4.585905e-02	-7.48779e-48	
4600	4.586905e-02	7.185992e-48	
4601	4.587905e-02	-5.37522e-48	
4602	4.588905e-02	-5.36706e-48	
4603	4.589905e-02	3.393158e-48	
4604	4.590905e-02	-1.04405e-48	
4605	4.591905e-02	5.040798e-48	
4606	4.592905e-02	4.013062e-48	
4607	4.593905e-02	1.288748e-48	
4608	4.594905e-02	-6.07669e-48	
4609	4.595905e-02	1.411097e-48	
4610	4.596905e-02	5.277340e-48	
4611	4.597905e-02	1.933121e-48	
4612	4.598905e-02	2.332796e-48	
4613	4.599905e-02	-1.06036e-48	
4614	4.600905e-02	-7.03917e-48	
4615	4.601905e-02	-3.85809e-48	
4616	4.602905e-02	-8.14032e-48	
4617	4.603905e-02	-4.40866e-48	
4618	4.604905e-02	-2.25939e-48	
4619	4.605905e-02	-7.53673e-48	
4620	4.606905e-02	3.123990e-48	
4621	4.607905e-02	8.046516e-48	
4622	4.608905e-02	3.707189e-48	
4623	4.609905e-02	-4.23737e-48	
4624	4.610905e-02	8.295293e-48	
4625	4.611905e-02	4.331171e-48	
4626	4.612905e-02	4.127255e-48	
4627	4.613905e-02	2.724315e-48	
4628	4.614905e-02	-2.13296e-48	
4629	4.615905e-02	4.237370e-48	
4630	4.616905e-02	2.402128e-48	
4631	4.617905e-02	-6.10116e-48	
4632	4.618905e-02	-5.08974e-48	
4633	4.619905e-02	-4.85320e-49	
4634	4.620905e-02	1.704736e-48	
4635	4.621905e-02	-2.96086e-48	
4636	4.622905e-02	-3.79283e-48	

Index   time            v(n3)           
--------------------------------------------------------------------------------
4637	4.623905e-02	5.750425e-49	
4638	4.624905e-02	2.997562e-48	
4639	4.625905e-02	2.887447e-48	
4640	4.626905e-02	7.218618e-49	
4641	4.627905e-02	3.344219e-49	
4642	4.628905e-02	-4.05385e-48	
4643	4.629905e-02	-1.01958e-49	
4644	4.630905e-02	1.745519e-48	
4645	4.631905e-02	-3.99675e-48	
4646	4.632905e-02	5.933949e-49	
4647	4.633905e-02	-2.71616e-48	
4648	4.634905e-02	-1.61501e-48	
4649	4.635905e-02	-3.94373e-48	
4650	4.636905e-02	2.483694e-48	
4651	4.637905e-02	2.834429e-48	
4652	4.638905e-02	-3.01184e-48	
4653	4.639905e-02	-4.02326e-48	
4654	4.640905e-02	-2.15539e-48	
4655	4.641905e-02	-3.39316e-48	
4656	4.642905e-02	-1.35808e-48	
4657	4.643905e-02	1.867868e-48	
4658	4.644905e-02	3.584839e-48	
4659	4.645905e-02	-1.89642e-49	
4660	4.646905e-02	-2.01265e-48	
4661	4.647905e-02	-3.40539e-48	
4662	4.648905e-02	6.178648e-49	
4663	4.649905e-02	4.792020e-49	
4664	4.650905e-02	-4.13337e-48	
4665	4.651905e-02	-3.41763e-48	
4666	4.652905e-02	3.142342e-48	
4667	4.653905e-02	-1.11542e-48	
4668	4.654905e-02	1.019579e-48	
4669	4.655905e-02	4.343406e-49	
4670	4.656905e-02	4.669671e-49	
4671	4.657905e-02	-7.17783e-49	
4672	4.658905e-02	-2.00653e-48	
4673	4.659905e-02	-8.97229e-49	
4674	4.660905e-02	1.531407e-48	
4675	4.661905e-02	1.296904e-48	
4676	4.662905e-02	3.119911e-49	
4677	4.663905e-02	-1.06648e-48	
4678	4.664905e-02	-2.58973e-49	
4679	4.665905e-02	1.180672e-48	
4680	4.666905e-02	-1.11338e-48	
4681	4.667905e-02	-2.07790e-48	
4682	4.668905e-02	1.297924e-48	
4683	4.669905e-02	1.878064e-48	
4684	4.670905e-02	-1.02468e-48	
4685	4.671905e-02	-1.81995e-48	
4686	4.672905e-02	7.096269e-49	
4687	4.673905e-02	1.193927e-48	
4688	4.674905e-02	-1.34686e-48	
4689	4.675905e-02	-1.10318e-48	
4690	4.676905e-02	1.954533e-48	
4691	4.677905e-02	3.945770e-49	
4692	4.678905e-02	-2.03916e-49	
4693	4.679905e-02	-1.89642e-48	
4694	4.680905e-02	-7.13705e-50	

Index   time            v(n3)           
--------------------------------------------------------------------------------
4695	4.681905e-02	1.623169e-48	
4696	4.682905e-02	-1.18985e-48	
4697	4.683905e-02	-1.13173e-48	
4698	4.684905e-02	-4.58810e-49	
4699	4.685905e-02	1.883162e-48	
4700	4.686905e-02	-1.95861e-48	
4701	4.687905e-02	-6.93314e-49	
4702	4.688905e-02	8.615441e-49	
4703	4.689905e-02	9.971481e-49	
4704	4.690905e-02	2.018766e-49	
4705	4.691905e-02	-5.59749e-49	
4706	4.692905e-02	-2.99756e-49	
4707	4.693905e-02	7.534688e-49	
4708	4.694905e-02	2.630513e-49	
4709	4.695905e-02	6.729220e-50	
4710	4.696905e-02	2.814038e-49	
4711	4.697905e-02	-6.58648e-49	
4712	4.698905e-02	-7.09627e-49	
4713	4.699905e-02	9.961285e-49	
4714	4.700905e-02	1.284669e-49	
4715	4.701905e-02	9.961285e-49	
4716	4.702905e-02	5.337495e-49	
4717	4.703905e-02	1.028755e-48	
4718	4.704905e-02	-3.96616e-49	
4719	4.705905e-02	-8.10565e-49	
4720	4.706905e-02	7.284891e-49	
4721	4.707905e-02	1.381529e-49	
4722	4.708905e-02	-1.91171e-49	
4723	4.709905e-02	-7.19313e-49	
4724	4.710905e-02	5.607684e-50	
4725	4.711905e-02	1.126635e-49	
4726	4.712905e-02	8.029183e-49	
4727	4.713905e-02	-2.94658e-49	
4728	4.714905e-02	-3.28304e-49	
4729	4.715905e-02	-3.77754e-49	
4730	4.716905e-02	-9.22719e-49	
4731	4.717905e-02	-9.96638e-49	
4732	4.718905e-02	-1.98818e-50	
4733	4.719905e-02	6.494717e-49	
4734	4.720905e-02	6.994311e-49	
4735	4.721905e-02	4.863391e-49	
4736	4.722905e-02	5.097894e-49	
4737	4.723905e-02	-4.44536e-49	
4738	4.724905e-02	-4.14459e-49	
4739	4.725905e-02	-1.02468e-49	
4740	4.726905e-02	4.006945e-49	
4741	4.727905e-02	2.803842e-50	
4742	4.728905e-02	-4.37399e-49	
4743	4.729905e-02	-5.17436e-49	
4744	4.730905e-02	-6.01552e-50	
4745	4.731905e-02	6.066494e-50	
4746	4.732905e-02	-5.06731e-49	
4747	4.733905e-02	8.054673e-50	
4748	4.734905e-02	-5.10809e-49	
4749	4.735905e-02	4.282231e-49	
4750	4.736905e-02	1.927004e-49	
4751	4.737905e-02	3.792833e-49	
4752	4.738905e-02	-3.89734e-49	

Index   time            v(n3)           
--------------------------------------------------------------------------------
4753	4.739905e-02	1.840340e-49	
4754	4.740905e-02	-3.48441e-49	
4755	4.741905e-02	4.998485e-49	
4756	4.742905e-02	-6.34688e-50	
4757	4.743905e-02	-5.53122e-50	
4758	4.744905e-02	5.194754e-49	
4759	4.745905e-02	8.997783e-50	
4760	4.746905e-02	-4.54477e-49	
4761	4.747905e-02	6.346878e-50	
4762	4.748905e-02	8.054673e-50	
4763	4.749905e-02	-3.77499e-49	
4764	4.750905e-02	2.411304e-49	
4765	4.751905e-02	2.803842e-49	
4766	4.752905e-02	-1.79446e-49	
4767	4.753905e-02	4.583007e-49	
4768	4.754905e-02	-2.52346e-49	
4769	4.755905e-02	-3.39010e-50	
4770	4.756905e-02	1.264278e-49	
4771	4.757905e-02	1.401921e-49	
4772	4.758905e-02	2.365423e-49	
4773	4.759905e-02	-3.82342e-51	
4774	4.760905e-02	2.143664e-49	
4775	4.761905e-02	2.184448e-49	
4776	4.762905e-02	-9.07425e-50	
4777	4.763905e-02	-2.60247e-49	
4778	4.764905e-02	9.176209e-51	
4779	4.765905e-02	3.746952e-50	
4780	4.766905e-02	2.161507e-49	
4781	4.767905e-02	-9.78796e-50	
4782	4.768905e-02	1.424861e-49	
4783	4.769905e-02	1.761322e-49	
4784	4.770905e-02	2.345031e-50	
4785	4.771905e-02	1.417215e-49	
4786	4.772905e-02	2.466106e-49	
4787	4.773905e-02	1.394274e-49	
4788	4.774905e-02	9.787957e-50	
4789	4.775905e-02	-1.35604e-49	
4790	4.776905e-02	-5.63317e-50	
4791	4.777905e-02	9.201699e-50	
4792	4.778905e-02	-6.42335e-50	
4793	4.779905e-02	-5.97728e-50	
4794	4.780905e-02	-8.78112e-50	
4795	4.781905e-02	-1.11899e-49	
4796	4.782905e-02	7.519394e-50	
4797	4.783905e-02	-2.17298e-49	
4798	4.784905e-02	2.497968e-50	
4799	4.785905e-02	-2.33229e-50	
4800	4.786905e-02	-3.77244e-50	
4801	4.787905e-02	-1.90406e-49	
4802	4.788905e-02	-1.06419e-49	
4803	4.789905e-02	-9.30366e-51	
4804	4.790905e-02	1.303786e-49	
4805	4.791905e-02	-1.83524e-49	
4806	4.792905e-02	8.118396e-50	
4807	4.793905e-02	5.199852e-50	
4808	4.794905e-02	-8.13114e-50	
4809	4.795905e-02	-3.39010e-50	
4810	4.796905e-02	-3.07148e-50	

Index   time            v(n3)           
--------------------------------------------------------------------------------
4811	4.797905e-02	1.250259e-49	
4812	4.798905e-02	1.133007e-49	
4813	4.799905e-02	-9.46934e-50	
4814	4.800905e-02	-8.81936e-50	
4815	4.801905e-02	9.800701e-50	
4816	4.802905e-02	-4.46066e-50	
4817	4.803905e-02	-1.24134e-49	
4818	4.804905e-02	1.898966e-50	
4819	4.805905e-02	-4.95770e-50	
4820	4.806905e-02	-4.46703e-50	
4821	4.807905e-02	1.102420e-50	
4822	4.808905e-02	2.268563e-50	
4823	4.809905e-02	5.263576e-50	
4824	4.810905e-02	-3.16707e-50	
4825	4.811905e-02	-4.12292e-50	
4826	4.812905e-02	-5.97728e-50	
4827	4.813905e-02	-9.84531e-50	
4828	4.814905e-02	-4.65183e-50	
4829	4.815905e-02	-7.98458e-50	
4830	4.816905e-02	-9.55855e-50	
4831	4.817905e-02	-1.02468e-49	
4832	4.818905e-02	7.162541e-50	
4833	4.819905e-02	-3.99547e-50	
4834	4.820905e-02	5.843461e-50	
4835	4.821905e-02	2.026413e-50	
4836	4.822905e-02	-1.14766e-49	
4837	4.823905e-02	-2.23033e-50	
4838	4.824905e-02	-6.87578e-50	
4839	4.825905e-02	4.779276e-50	
4840	4.826905e-02	2.198467e-50	
4841	4.827905e-02	-4.77928e-50	
4842	4.828905e-02	3.785186e-50	
4843	4.829905e-02	0.000000e+00	
4844	4.830905e-02	1.930827e-50	
4845	4.831905e-02	-5.51847e-50	
4846	4.832905e-02	-5.94542e-50	
4847	4.833905e-02	-6.37237e-52	
4848	4.834905e-02	-1.59946e-50	
4849	4.835905e-02	5.435630e-50	
4850	4.836905e-02	-4.02096e-50	
4851	4.837905e-02	-2.75924e-50	
4852	4.838905e-02	1.561230e-50	
4853	4.839905e-02	-9.49483e-51	
4854	4.840905e-02	5.406954e-50	
4855	4.841905e-02	-6.30546e-50	
4856	4.842905e-02	-4.69643e-50	
4857	4.843905e-02	-1.43378e-50	
4858	4.844905e-02	-1.72054e-50	
4859	4.845905e-02	-3.26584e-50	
4860	4.846905e-02	-5.01187e-50	
4861	4.847905e-02	1.162957e-50	
4862	4.848905e-02	-1.24580e-50	
4863	4.849905e-02	-1.72054e-51	
4864	4.850905e-02	-4.53713e-50	
4865	4.851905e-02	3.004571e-50	
4866	4.852905e-02	4.588105e-50	
4867	4.853905e-02	5.958164e-50	
4868	4.854905e-02	3.055550e-50	

Index   time            v(n3)           
--------------------------------------------------------------------------------
4869	4.855905e-02	-1.80975e-50	
4870	4.856905e-02	-5.89125e-50	
4871	4.857905e-02	1.529368e-51	
4872	4.858905e-02	6.471139e-50	
4873	4.859905e-02	2.708256e-50	
4874	4.860905e-02	-2.88031e-50	
4875	4.861905e-02	-1.65682e-51	
4876	4.862905e-02	2.418314e-50	
4877	4.863905e-02	3.061923e-50	
4878	4.864905e-02	-1.47202e-50	
4879	4.865905e-02	1.274474e-50	
4880	4.866905e-02	5.639545e-51	
4881	4.867905e-02	2.112440e-50	
4882	4.868905e-02	9.239933e-52	
4883	4.869905e-02	-2.31954e-50	
4884	4.870905e-02	-3.17663e-50	
4885	4.871905e-02	-8.12477e-51	
4886	4.872905e-02	7.041466e-51	
4887	4.873905e-02	-1.07693e-50	
4888	4.874905e-02	2.083764e-50	
4889	4.875905e-02	7.519394e-51	
4890	4.876905e-02	-3.00457e-50	
4891	4.877905e-02	2.134743e-50	
4892	4.878905e-02	-1.10879e-50	
4893	4.879905e-02	-1.81453e-50	
4894	4.880905e-02	1.895779e-50	
4895	4.881905e-02	-1.18526e-50	
4896	4.882905e-02	-6.48388e-51	
4897	4.883905e-02	-6.38830e-51	
4898	4.884905e-02	2.706663e-50	
4899	4.885905e-02	-1.80816e-50	
4900	4.886905e-02	-1.39077e-50	
4901	4.887905e-02	7.439739e-51	
4902	4.888905e-02	-1.90693e-50	
4903	4.889905e-02	-2.50115e-50	
4904	4.890905e-02	3.855282e-51	
4905	4.891905e-02	8.172562e-51	
4906	4.892905e-02	1.757180e-50	
4907	4.893905e-02	-1.65363e-50	
4908	4.894905e-02	-2.81977e-51	
4909	4.895905e-02	3.167067e-50	
4910	4.896905e-02	-7.31229e-51	
4911	4.897905e-02	-5.25720e-52	
4912	4.898905e-02	-2.86757e-51	
4913	4.899905e-02	-4.89079e-51	
4914	4.900905e-02	4.046453e-51	
4915	4.901905e-02	-9.25586e-51	
4916	4.902905e-02	-2.21440e-51	
4917	4.903905e-02	-6.62726e-51	
4918	4.904905e-02	1.604244e-50	
4919	4.905905e-02	7.965460e-52	
4920	4.906905e-02	3.903075e-51	
4921	4.907905e-02	-1.25217e-50	
4922	4.908905e-02	-1.07534e-50	
4923	4.909905e-02	1.306335e-51	
4924	4.910905e-02	-1.00524e-50	
4925	4.911905e-02	1.345366e-50	
4926	4.912905e-02	5.050101e-51	

Index   time            v(n3)           
--------------------------------------------------------------------------------
4927	4.913905e-02	-7.96546e-51	
4928	4.914905e-02	1.194022e-50	
4929	4.915905e-02	5.097894e-51	
4930	4.916905e-02	-1.95154e-51	
4931	4.917905e-02	-4.22966e-51	
4932	4.918905e-02	5.583787e-51	
4933	4.919905e-02	-6.81047e-51	
4934	4.920905e-02	2.262191e-51	
4935	4.921905e-02	-1.07374e-50	
4936	4.922905e-02	1.352535e-50	
4937	4.923905e-02	4.604036e-51	
4938	4.924905e-02	7.630910e-51	
4939	4.925905e-02	-1.56521e-50	
4940	4.926905e-02	1.327842e-50	
4941	4.927905e-02	5.328892e-51	
4942	4.928905e-02	-1.31908e-50	
4943	4.929905e-02	2.118812e-51	
4944	4.930905e-02	-5.28110e-51	
4945	4.931905e-02	4.675725e-51	
4946	4.932905e-02	7.272465e-51	
4947	4.933905e-02	-1.46564e-51	
4948	4.934905e-02	5.950198e-51	
4949	4.935905e-02	4.922654e-51	
4950	4.936905e-02	4.476588e-51	
4951	4.937905e-02	1.577161e-51	
4952	4.938905e-02	4.524381e-51	
4953	4.939905e-02	-6.25289e-51	
4954	4.940905e-02	-1.12313e-51	
4955	4.941905e-02	3.265838e-52	
4956	4.942905e-02	4.205763e-51	
4957	4.943905e-02	-6.34051e-51	
4958	4.944905e-02	-2.18254e-51	
4959	4.945905e-02	-3.38134e-51	
4960	4.946905e-02	4.862913e-51	
4961	4.947905e-02	-7.34814e-51	
4962	4.948905e-02	-6.00596e-51	
4963	4.949905e-02	6.659124e-51	
4964	4.950905e-02	1.648850e-51	
4965	4.951905e-02	1.083302e-51	
4966	4.952905e-02	-4.33719e-51	
4967	4.953905e-02	-1.91968e-51	
4968	4.954905e-02	-1.18685e-51	
4969	4.955905e-02	-6.26085e-51	
4970	4.956905e-02	6.583452e-51	
4971	4.957905e-02	1.318284e-51	
4972	4.958905e-02	2.752066e-51	
4973	4.959905e-02	4.902740e-51	
4974	4.960905e-02	-5.20543e-51	
4975	4.961905e-02	-6.70293e-51	
4976	4.962905e-02	-4.54429e-51	
4977	4.963905e-02	-5.91435e-51	
4978	4.964905e-02	4.353124e-51	
4979	4.965905e-02	2.306001e-51	
4980	4.966905e-02	-2.45336e-51	
4981	4.967905e-02	-2.83172e-51	
4982	4.968905e-02	-3.12246e-51	
4983	4.969905e-02	1.306335e-51	
4984	4.970905e-02	-2.87553e-51	

Index   time            v(n3)           
--------------------------------------------------------------------------------
4985	4.971905e-02	1.445731e-51	
4986	4.972905e-02	3.285752e-51	
4987	4.973905e-02	-2.19448e-51	
4988	4.974905e-02	-1.70859e-51	
4989	4.975905e-02	4.006626e-51	
4990	4.976905e-02	-2.72419e-51	
4991	4.977905e-02	-2.80384e-51	
4992	4.978905e-02	-3.57649e-51	
4993	4.979905e-02	3.504802e-52	
4994	4.980905e-02	-1.46564e-51	
4995	4.981905e-02	2.222363e-51	
4996	4.982905e-02	3.000987e-51	
4997	4.983905e-02	-1.52738e-51	
4998	4.984905e-02	-3.48489e-51	
4999	4.985905e-02	-2.58280e-51	
5000	4.986905e-02	-3.45900e-51	
5001	4.987905e-02	-1.25257e-51	
5002	4.988905e-02	2.923324e-51	
5003	4.989905e-02	-2.13474e-51	
5004	4.990905e-02	-8.10486e-52	
5005	4.991905e-02	-2.77596e-51	
5006	4.992905e-02	-9.93691e-52	
5007	4.993905e-02	3.327571e-51	
5008	4.994905e-02	-2.25223e-51	
5009	4.995905e-02	-1.86392e-51	
5010	4.996905e-02	-1.66677e-51	
5011	4.997905e-02	-3.29969e-51	
5012	4.998905e-02	1.101225e-51	
5013	4.999453e-02	-1.02356e-51	
5014	5.000000e-02	1.457679e-51	
Note: Simulation executed from .control section 
